/*---------------------------------------------------------------------------*\
| =========                 |                                                 |
| \\      /  F ield         | OpenFOAM: The Open Source CFD Toolbox           |
|  \\    /   O peration     | Version:  2406                                  |
|   \\  /    A nd           | Website:  www.openfoam.com                      |
|    \\/     M anipulation  |                                                 |
\*---------------------------------------------------------------------------*/
Build  : _9bfe8264-20241212 OPENFOAM=2406 patch=241212 version=2406
Arch   : "LSB;label=32;scalar=64"
Exec   : /usr/lib/openfoam/openfoam2406/platforms/linux64GccDPInt32Opt/bin/decomposePar -noFunctionObjects -latestTime -force
Date   : Feb 21 2025
Time   : 11:48:28
Host   : dphan-Thelio-Major
PID    : 155722
    From Foam::fileName Foam::cwd_L()
    in file POSIX.C at line 552
    PWD is not the cwd() - reverting to physical description
I/O    : uncollated
    From Foam::fileName Foam::cwd_L()
    in file POSIX.C at line 552
    PWD is not the cwd() - reverting to physical description
Case   : /home/dphan/Documents/GitHub/UT3-DataAnalysis/SimFlow/GasJet/SimpleTest/SimpleTest
nProcs : 1
trapFpe: Floating point exception trapping enabled (FOAM_SIGFPE).
fileModificationChecking : Monitoring run-time modified files using timeStampMaster (fileModificationSkew 5, maxFileModificationPolls 20)
allowSystemOperations : Allowing user-supplied system call operations

// * * * * * * * * * * * * * * * * * * * * * * * * * * * * * * * * * * * * * //
Create time

Overriding OptimisationSwitches according to controlDict
    fileHandler (unregistered)
    fileModificationSkew 0;

    maxMasterFileBufferSize 1e+09;

    maxThreadFileBufferSize 1e+09;

    mpiBufferSize (unregistered)


Decomposing mesh

Removing 24 existing processor directories
Create mesh

Calculating distribution of cells
Decomposition method scotch [24] (region region0)

Finished decomposition in 0.27 s

Calculating original mesh data

Distributing cells to processors

Distributing faces to processors

Distributing points to processors

Constructing processor meshes
Overriding OptimisationSwitches according to controlDict
    fileHandler (unregistered)
    fileModificationSkew 0;

    maxMasterFileBufferSize 1e+09;

    maxThreadFileBufferSize 1e+09;

    mpiBufferSize (unregistered)

Processor 0
    Number of cells = 3411
    Number of points = 5906
    Number of faces shared with processor 1 = 78
    Number of faces shared with processor 2 = 66
    Number of faces shared with processor 4 = 68
    Number of faces shared with processor 5 = 22
    Number of faces shared with processor 6 = 51
    Number of processor patches = 5
    Number of processor faces = 285
    Number of boundary faces = 2233
Overriding OptimisationSwitches according to controlDict
    fileHandler (unregistered)
    fileModificationSkew 0;

    maxMasterFileBufferSize 1e+09;

    maxThreadFileBufferSize 1e+09;

    mpiBufferSize (unregistered)

Processor 1
    Number of cells = 3382
    Number of points = 5573
    Number of faces shared with processor 0 = 78
    Number of faces shared with processor 2 = 99
    Number of faces shared with processor 5 = 58
    Number of faces shared with processor 6 = 137
    Number of processor patches = 4
    Number of processor faces = 372
    Number of boundary faces = 1909
Overriding OptimisationSwitches according to controlDict
    fileHandler (unregistered)
    fileModificationSkew 0;

    maxMasterFileBufferSize 1e+09;

    maxThreadFileBufferSize 1e+09;

    mpiBufferSize (unregistered)

Processor 2
    Number of cells = 3448
    Number of points = 5793
    Number of faces shared with processor 0 = 66
    Number of faces shared with processor 1 = 99
    Number of faces shared with processor 3 = 166
    Number of faces shared with processor 4 = 76
    Number of faces shared with processor 6 = 38
    Number of faces shared with processor 9 = 36
    Number of faces shared with processor 13 = 16
    Number of faces shared with processor 14 = 12
    Number of processor patches = 8
    Number of processor faces = 509
    Number of boundary faces = 1971
Overriding OptimisationSwitches according to controlDict
    fileHandler (unregistered)
    fileModificationSkew 0;

    maxMasterFileBufferSize 1e+09;

    maxThreadFileBufferSize 1e+09;

    mpiBufferSize (unregistered)

Processor 3
    Number of cells = 3448
    Number of points = 5599
    Number of faces shared with processor 2 = 166
    Number of faces shared with processor 4 = 89
    Number of faces shared with processor 5 = 114
    Number of faces shared with processor 9 = 14
    Number of faces shared with processor 10 = 69
    Number of faces shared with processor 13 = 23
    Number of faces shared with processor 15 = 33
    Number of processor patches = 7
    Number of processor faces = 508
    Number of boundary faces = 1839
Overriding OptimisationSwitches according to controlDict
    fileHandler (unregistered)
    fileModificationSkew 0;

    maxMasterFileBufferSize 1e+09;

    maxThreadFileBufferSize 1e+09;

    mpiBufferSize (unregistered)

Processor 4
    Number of cells = 3386
    Number of points = 5755
    Number of faces shared with processor 0 = 68
    Number of faces shared with processor 2 = 76
    Number of faces shared with processor 3 = 89
    Number of faces shared with processor 5 = 106
    Number of faces shared with processor 6 = 32
    Number of faces shared with processor 10 = 20
    Number of processor patches = 6
    Number of processor faces = 391
    Number of boundary faces = 2068
Overriding OptimisationSwitches according to controlDict
    fileHandler (unregistered)
    fileModificationSkew 0;

    maxMasterFileBufferSize 1e+09;

    maxThreadFileBufferSize 1e+09;

    mpiBufferSize (unregistered)

Processor 5
    Number of cells = 3383
    Number of points = 5548
    Number of faces shared with processor 0 = 22
    Number of faces shared with processor 1 = 58
    Number of faces shared with processor 3 = 114
    Number of faces shared with processor 4 = 106
    Number of faces shared with processor 6 = 125
    Number of faces shared with processor 10 = 23
    Number of faces shared with processor 15 = 7
    Number of faces shared with processor 16 = 21
    Number of faces shared with processor 17 = 13
    Number of processor patches = 9
    Number of processor faces = 489
    Number of boundary faces = 1802
Overriding OptimisationSwitches according to controlDict
    fileHandler (unregistered)
    fileModificationSkew 0;

    maxMasterFileBufferSize 1e+09;

    maxThreadFileBufferSize 1e+09;

    mpiBufferSize (unregistered)

Processor 6
    Number of cells = 3448
    Number of points = 4448
    Number of faces shared with processor 0 = 51
    Number of faces shared with processor 1 = 137
    Number of faces shared with processor 2 = 38
    Number of faces shared with processor 4 = 32
    Number of faces shared with processor 5 = 125
    Number of faces shared with processor 7 = 176
    Number of faces shared with processor 8 = 146
    Number of faces shared with processor 9 = 115
    Number of faces shared with processor 10 = 117
    Number of faces shared with processor 11 = 87
    Number of faces shared with processor 12 = 85
    Number of faces shared with processor 14 = 82
    Number of faces shared with processor 16 = 28
    Number of faces shared with processor 17 = 98
    Number of processor patches = 14
    Number of processor faces = 1317
    Number of boundary faces = 435
Overriding OptimisationSwitches according to controlDict
    fileHandler (unregistered)
    fileModificationSkew 0;

    maxMasterFileBufferSize 1e+09;

    maxThreadFileBufferSize 1e+09;

    mpiBufferSize (unregistered)

Processor 7
    Number of cells = 3446
    Number of points = 4163
    Number of faces shared with processor 6 = 176
    Number of faces shared with processor 8 = 408
    Number of faces shared with processor 9 = 53
    Number of faces shared with processor 10 = 148
    Number of faces shared with processor 12 = 34
    Number of faces shared with processor 13 = 72
    Number of faces shared with processor 14 = 55
    Number of faces shared with processor 16 = 71
    Number of faces shared with processor 17 = 5
    Number of processor patches = 9
    Number of processor faces = 1022
    Number of boundary faces = 306
Overriding OptimisationSwitches according to controlDict
    fileHandler (unregistered)
    fileModificationSkew 0;

    maxMasterFileBufferSize 1e+09;

    maxThreadFileBufferSize 1e+09;

    mpiBufferSize (unregistered)

Processor 8
    Number of cells = 3450
    Number of points = 4168
    Number of faces shared with processor 6 = 146
    Number of faces shared with processor 7 = 408
    Number of faces shared with processor 9 = 16
    Number of faces shared with processor 10 = 73
    Number of faces shared with processor 11 = 143
    Number of faces shared with processor 13 = 13
    Number of faces shared with processor 15 = 64
    Number of faces shared with processor 16 = 105
    Number of faces shared with processor 17 = 55
    Number of processor patches = 9
    Number of processor faces = 1023
    Number of boundary faces = 308
Overriding OptimisationSwitches according to controlDict
    fileHandler (unregistered)
    fileModificationSkew 0;

    maxMasterFileBufferSize 1e+09;

    maxThreadFileBufferSize 1e+09;

    mpiBufferSize (unregistered)

Processor 9
    Number of cells = 3382
    Number of points = 5625
    Number of faces shared with processor 2 = 36
    Number of faces shared with processor 3 = 14
    Number of faces shared with processor 6 = 115
    Number of faces shared with processor 7 = 53
    Number of faces shared with processor 8 = 16
    Number of faces shared with processor 10 = 122
    Number of faces shared with processor 11 = 54
    Number of faces shared with processor 13 = 11
    Number of faces shared with processor 14 = 9
    Number of processor patches = 9
    Number of processor faces = 430
    Number of boundary faces = 2027
Overriding OptimisationSwitches according to controlDict
    fileHandler (unregistered)
    fileModificationSkew 0;

    maxMasterFileBufferSize 1e+09;

    maxThreadFileBufferSize 1e+09;

    mpiBufferSize (unregistered)

Processor 10
    Number of cells = 3450
    Number of points = 5292
    Number of faces shared with processor 3 = 69
    Number of faces shared with processor 4 = 20
    Number of faces shared with processor 5 = 23
    Number of faces shared with processor 6 = 117
    Number of faces shared with processor 7 = 148
    Number of faces shared with processor 8 = 73
    Number of faces shared with processor 9 = 122
    Number of faces shared with processor 11 = 153
    Number of faces shared with processor 13 = 44
    Number of faces shared with processor 14 = 1
    Number of faces shared with processor 15 = 36
    Number of faces shared with processor 16 = 5
    Number of processor patches = 12
    Number of processor faces = 811
    Number of boundary faces = 1448
Overriding OptimisationSwitches according to controlDict
    fileHandler (unregistered)
    fileModificationSkew 0;

    maxMasterFileBufferSize 1e+09;

    maxThreadFileBufferSize 1e+09;

    mpiBufferSize (unregistered)

Processor 11
    Number of cells = 3383
    Number of points = 5512
    Number of faces shared with processor 6 = 87
    Number of faces shared with processor 8 = 143
    Number of faces shared with processor 9 = 54
    Number of faces shared with processor 10 = 153
    Number of processor patches = 4
    Number of processor faces = 437
    Number of boundary faces = 1888
Overriding OptimisationSwitches according to controlDict
    fileHandler (unregistered)
    fileModificationSkew 0;

    maxMasterFileBufferSize 1e+09;

    maxThreadFileBufferSize 1e+09;

    mpiBufferSize (unregistered)

Processor 12
    Number of cells = 3450
    Number of points = 5315
    Number of faces shared with processor 6 = 85
    Number of faces shared with processor 7 = 34
    Number of faces shared with processor 14 = 183
    Number of faces shared with processor 16 = 39
    Number of faces shared with processor 17 = 127
    Number of processor patches = 5
    Number of processor faces = 468
    Number of boundary faces = 1122
Overriding OptimisationSwitches according to controlDict
    fileHandler (unregistered)
    fileModificationSkew 0;

    maxMasterFileBufferSize 1e+09;

    maxThreadFileBufferSize 1e+09;

    mpiBufferSize (unregistered)

Processor 13
    Number of cells = 3410
    Number of points = 5243
    Number of faces shared with processor 2 = 16
    Number of faces shared with processor 3 = 23
    Number of faces shared with processor 7 = 72
    Number of faces shared with processor 8 = 13
    Number of faces shared with processor 9 = 11
    Number of faces shared with processor 10 = 44
    Number of faces shared with processor 14 = 201
    Number of faces shared with processor 15 = 172
    Number of faces shared with processor 16 = 39
    Number of processor patches = 9
    Number of processor faces = 591
    Number of boundary faces = 1045
Overriding OptimisationSwitches according to controlDict
    fileHandler (unregistered)
    fileModificationSkew 0;

    maxMasterFileBufferSize 1e+09;

    maxThreadFileBufferSize 1e+09;

    mpiBufferSize (unregistered)

Processor 14
    Number of cells = 3404
    Number of points = 5295
    Number of faces shared with processor 2 = 12
    Number of faces shared with processor 6 = 82
    Number of faces shared with processor 7 = 55
    Number of faces shared with processor 9 = 9
    Number of faces shared with processor 10 = 1
    Number of faces shared with processor 12 = 183
    Number of faces shared with processor 13 = 201
    Number of faces shared with processor 16 = 43
    Number of processor patches = 8
    Number of processor faces = 586
    Number of boundary faces = 1065
Overriding OptimisationSwitches according to controlDict
    fileHandler (unregistered)
    fileModificationSkew 0;

    maxMasterFileBufferSize 1e+09;

    maxThreadFileBufferSize 1e+09;

    mpiBufferSize (unregistered)

Processor 15
    Number of cells = 3397
    Number of points = 5246
    Number of faces shared with processor 3 = 33
    Number of faces shared with processor 5 = 7
    Number of faces shared with processor 8 = 64
    Number of faces shared with processor 10 = 36
    Number of faces shared with processor 13 = 172
    Number of faces shared with processor 16 = 181
    Number of faces shared with processor 23 = 23
    Number of processor patches = 7
    Number of processor faces = 516
    Number of boundary faces = 1083
Overriding OptimisationSwitches according to controlDict
    fileHandler (unregistered)
    fileModificationSkew 0;

    maxMasterFileBufferSize 1e+09;

    maxThreadFileBufferSize 1e+09;

    mpiBufferSize (unregistered)

Processor 16
    Number of cells = 3450
    Number of points = 5655
    Number of faces shared with processor 5 = 21
    Number of faces shared with processor 6 = 28
    Number of faces shared with processor 7 = 71
    Number of faces shared with processor 8 = 105
    Number of faces shared with processor 10 = 5
    Number of faces shared with processor 12 = 39
    Number of faces shared with processor 13 = 39
    Number of faces shared with processor 14 = 43
    Number of faces shared with processor 15 = 181
    Number of faces shared with processor 17 = 214
    Number of faces shared with processor 22 = 117
    Number of faces shared with processor 23 = 221
    Number of processor patches = 12
    Number of processor faces = 1084
    Number of boundary faces = 1081
Overriding OptimisationSwitches according to controlDict
    fileHandler (unregistered)
    fileModificationSkew 0;

    maxMasterFileBufferSize 1e+09;

    maxThreadFileBufferSize 1e+09;

    mpiBufferSize (unregistered)

Processor 17
    Number of cells = 3382
    Number of points = 5194
    Number of faces shared with processor 5 = 13
    Number of faces shared with processor 6 = 98
    Number of faces shared with processor 7 = 5
    Number of faces shared with processor 8 = 55
    Number of faces shared with processor 12 = 127
    Number of faces shared with processor 16 = 214
    Number of processor patches = 6
    Number of processor faces = 512
    Number of boundary faces = 1060
Overriding OptimisationSwitches according to controlDict
    fileHandler (unregistered)
    fileModificationSkew 0;

    maxMasterFileBufferSize 1e+09;

    maxThreadFileBufferSize 1e+09;

    mpiBufferSize (unregistered)

Processor 18
    Number of cells = 3395
    Number of points = 5597
    Number of faces shared with processor 20 = 111
    Number of faces shared with processor 21 = 60
    Number of processor patches = 2
    Number of processor faces = 171
    Number of boundary faces = 2295
Overriding OptimisationSwitches according to controlDict
    fileHandler (unregistered)
    fileModificationSkew 0;

    maxMasterFileBufferSize 1e+09;

    maxThreadFileBufferSize 1e+09;

    mpiBufferSize (unregistered)

Processor 19
    Number of cells = 3422
    Number of points = 5437
    Number of faces shared with processor 20 = 203
    Number of processor patches = 1
    Number of processor faces = 203
    Number of boundary faces = 2408
Overriding OptimisationSwitches according to controlDict
    fileHandler (unregistered)
    fileModificationSkew 0;

    maxMasterFileBufferSize 1e+09;

    maxThreadFileBufferSize 1e+09;

    mpiBufferSize (unregistered)

Processor 20
    Number of cells = 3382
    Number of points = 5416
    Number of faces shared with processor 18 = 111
    Number of faces shared with processor 19 = 203
    Number of processor patches = 2
    Number of processor faces = 314
    Number of boundary faces = 2188
Overriding OptimisationSwitches according to controlDict
    fileHandler (unregistered)
    fileModificationSkew 0;

    maxMasterFileBufferSize 1e+09;

    maxThreadFileBufferSize 1e+09;

    mpiBufferSize (unregistered)

Processor 21
    Number of cells = 3409
    Number of points = 5464
    Number of faces shared with processor 18 = 60
    Number of faces shared with processor 22 = 83
    Number of processor patches = 2
    Number of processor faces = 143
    Number of boundary faces = 2092
Overriding OptimisationSwitches according to controlDict
    fileHandler (unregistered)
    fileModificationSkew 0;

    maxMasterFileBufferSize 1e+09;

    maxThreadFileBufferSize 1e+09;

    mpiBufferSize (unregistered)

Processor 22
    Number of cells = 3428
    Number of points = 5383
    Number of faces shared with processor 16 = 117
    Number of faces shared with processor 21 = 83
    Number of faces shared with processor 23 = 214
    Number of processor patches = 3
    Number of processor faces = 414
    Number of boundary faces = 1821
Overriding OptimisationSwitches according to controlDict
    fileHandler (unregistered)
    fileModificationSkew 0;

    maxMasterFileBufferSize 1e+09;

    maxThreadFileBufferSize 1e+09;

    mpiBufferSize (unregistered)

Processor 23
    Number of cells = 3450
    Number of points = 5400
    Number of faces shared with processor 15 = 23
    Number of faces shared with processor 16 = 221
    Number of faces shared with processor 22 = 214
    Number of processor patches = 3
    Number of processor faces = 458
    Number of boundary faces = 1335

Number of processor faces = 6527
Max number of cells = 3450 (0.9805356% above average 3416.5)
Max number of processor patches = 14 (115.3846% above average 6.5)
Max number of faces between processors = 1317 (142.1327% above average 543.9167)

Time = 0

Processor 0: field transfer
Overriding OptimisationSwitches according to controlDict
    fileHandler (unregistered)
    fileModificationSkew 0;

    maxMasterFileBufferSize 1e+09;

    maxThreadFileBufferSize 1e+09;

    mpiBufferSize (unregistered)
Processor 1: field transfer
Overriding OptimisationSwitches according to controlDict
    fileHandler (unregistered)
    fileModificationSkew 0;

    maxMasterFileBufferSize 1e+09;

    maxThreadFileBufferSize 1e+09;

    mpiBufferSize (unregistered)
Processor 2: field transfer
Overriding OptimisationSwitches according to controlDict
    fileHandler (unregistered)
    fileModificationSkew 0;

    maxMasterFileBufferSize 1e+09;

    maxThreadFileBufferSize 1e+09;

    mpiBufferSize (unregistered)
Processor 3: field transfer
Overriding OptimisationSwitches according to controlDict
    fileHandler (unregistered)
    fileModificationSkew 0;

    maxMasterFileBufferSize 1e+09;

    maxThreadFileBufferSize 1e+09;

    mpiBufferSize (unregistered)
Processor 4: field transfer
Overriding OptimisationSwitches according to controlDict
    fileHandler (unregistered)
    fileModificationSkew 0;

    maxMasterFileBufferSize 1e+09;

    maxThreadFileBufferSize 1e+09;

    mpiBufferSize (unregistered)
Processor 5: field transfer
Overriding OptimisationSwitches according to controlDict
    fileHandler (unregistered)
    fileModificationSkew 0;

    maxMasterFileBufferSize 1e+09;

    maxThreadFileBufferSize 1e+09;

    mpiBufferSize (unregistered)
Processor 6: field transfer
Overriding OptimisationSwitches according to controlDict
    fileHandler (unregistered)
    fileModificationSkew 0;

    maxMasterFileBufferSize 1e+09;

    maxThreadFileBufferSize 1e+09;

    mpiBufferSize (unregistered)
Processor 7: field transfer
Overriding OptimisationSwitches according to controlDict
    fileHandler (unregistered)
    fileModificationSkew 0;

    maxMasterFileBufferSize 1e+09;

    maxThreadFileBufferSize 1e+09;

    mpiBufferSize (unregistered)
Processor 8: field transfer
Overriding OptimisationSwitches according to controlDict
    fileHandler (unregistered)
    fileModificationSkew 0;

    maxMasterFileBufferSize 1e+09;

    maxThreadFileBufferSize 1e+09;

    mpiBufferSize (unregistered)
Processor 9: field transfer
Overriding OptimisationSwitches according to controlDict
    fileHandler (unregistered)
    fileModificationSkew 0;

    maxMasterFileBufferSize 1e+09;

    maxThreadFileBufferSize 1e+09;

    mpiBufferSize (unregistered)
Processor 10: field transfer
Overriding OptimisationSwitches according to controlDict
    fileHandler (unregistered)
    fileModificationSkew 0;

    maxMasterFileBufferSize 1e+09;

    maxThreadFileBufferSize 1e+09;

    mpiBufferSize (unregistered)
Processor 11: field transfer
Overriding OptimisationSwitches according to controlDict
    fileHandler (unregistered)
    fileModificationSkew 0;

    maxMasterFileBufferSize 1e+09;

    maxThreadFileBufferSize 1e+09;

    mpiBufferSize (unregistered)
Processor 12: field transfer
Overriding OptimisationSwitches according to controlDict
    fileHandler (unregistered)
    fileModificationSkew 0;

    maxMasterFileBufferSize 1e+09;

    maxThreadFileBufferSize 1e+09;

    mpiBufferSize (unregistered)
Processor 13: field transfer
Overriding OptimisationSwitches according to controlDict
    fileHandler (unregistered)
    fileModificationSkew 0;

    maxMasterFileBufferSize 1e+09;

    maxThreadFileBufferSize 1e+09;

    mpiBufferSize (unregistered)
Processor 14: field transfer
Overriding OptimisationSwitches according to controlDict
    fileHandler (unregistered)
    fileModificationSkew 0;

    maxMasterFileBufferSize 1e+09;

    maxThreadFileBufferSize 1e+09;

    mpiBufferSize (unregistered)
Processor 15: field transfer
Overriding OptimisationSwitches according to controlDict
    fileHandler (unregistered)
    fileModificationSkew 0;

    maxMasterFileBufferSize 1e+09;

    maxThreadFileBufferSize 1e+09;

    mpiBufferSize (unregistered)
Processor 16: field transfer
Overriding OptimisationSwitches according to controlDict
    fileHandler (unregistered)
    fileModificationSkew 0;

    maxMasterFileBufferSize 1e+09;

    maxThreadFileBufferSize 1e+09;

    mpiBufferSize (unregistered)
Processor 17: field transfer
Overriding OptimisationSwitches according to controlDict
    fileHandler (unregistered)
    fileModificationSkew 0;

    maxMasterFileBufferSize 1e+09;

    maxThreadFileBufferSize 1e+09;

    mpiBufferSize (unregistered)
Processor 18: field transfer
Overriding OptimisationSwitches according to controlDict
    fileHandler (unregistered)
    fileModificationSkew 0;

    maxMasterFileBufferSize 1e+09;

    maxThreadFileBufferSize 1e+09;

    mpiBufferSize (unregistered)
Processor 19: field transfer
Overriding OptimisationSwitches according to controlDict
    fileHandler (unregistered)
    fileModificationSkew 0;

    maxMasterFileBufferSize 1e+09;

    maxThreadFileBufferSize 1e+09;

    mpiBufferSize (unregistered)
Processor 20: field transfer
Overriding OptimisationSwitches according to controlDict
    fileHandler (unregistered)
    fileModificationSkew 0;

    maxMasterFileBufferSize 1e+09;

    maxThreadFileBufferSize 1e+09;

    mpiBufferSize (unregistered)
Processor 21: field transfer
Overriding OptimisationSwitches according to controlDict
    fileHandler (unregistered)
    fileModificationSkew 0;

    maxMasterFileBufferSize 1e+09;

    maxThreadFileBufferSize 1e+09;

    mpiBufferSize (unregistered)
Processor 22: field transfer
Overriding OptimisationSwitches according to controlDict
    fileHandler (unregistered)
    fileModificationSkew 0;

    maxMasterFileBufferSize 1e+09;

    maxThreadFileBufferSize 1e+09;

    mpiBufferSize (unregistered)
Processor 23: field transfer
Overriding OptimisationSwitches according to controlDict
    fileHandler (unregistered)
    fileModificationSkew 0;

    maxMasterFileBufferSize 1e+09;

    maxThreadFileBufferSize 1e+09;

    mpiBufferSize (unregistered)

End

/*---------------------------------------------------------------------------*\
| =========                 |                                                 |
| \\      /  F ield         | OpenFOAM: The Open Source CFD Toolbox           |
|  \\    /   O peration     | Version:  2406                                  |
|   \\  /    A nd           | Website:  www.openfoam.com                      |
|    \\/     M anipulation  |                                                 |
\*---------------------------------------------------------------------------*/
Build  : _9bfe8264-20241212 OPENFOAM=2406 patch=241212 version=2406
Arch   : "LSB;label=32;scalar=64"
Exec   : rhoCentralFoam -parallel
Date   : Feb 21 2025
Time   : 11:48:29
Host   : dphan-Thelio-Major
PID    : 155727
I/O    : uncollated
Case   : /home/dphan/Documents/GitHub/UT3-DataAnalysis/SimFlow/GasJet/SimpleTest/SimpleTest
nProcs : 24
Hosts  :
(
    (dphan-Thelio-Major 24)
)
Pstream initialized with:
    floatTransfer      : false
    maxCommsSize       : 0
    nProcsSimpleSum    : 0
    nonBlockingExchange: 0 (tuning: 0)
    exchange algorithm : 0
    commsType          : nonBlocking
    polling iterations : 0
trapFpe: Floating point exception trapping enabled (FOAM_SIGFPE).
fileModificationChecking : Monitoring run-time modified files using timeStampMaster (fileModificationSkew 5, maxFileModificationPolls 20)
allowSystemOperations : Allowing user-supplied system call operations

// * * * * * * * * * * * * * * * * * * * * * * * * * * * * * * * * * * * * * //
Create time

Overriding OptimisationSwitches according to controlDict
    fileHandler (unregistered)
    fileModificationSkew 0;

    maxMasterFileBufferSize 1e+09;

    maxThreadFileBufferSize 1e+09;

    mpiBufferSize (unregistered)
Create mesh for time = 0

Selecting dynamicFvMesh staticFvMesh
Reading thermophysical properties

Selecting thermodynamics package 
{
    type            hePsiThermo;
    mixture         pureMixture;
    transport       sutherland;
    thermo          janaf;
    equationOfState PengRobinsonGas;
    specie          specie;
    energy          sensibleEnthalpy;
}

Reading field U

Creating turbulence model

Selecting turbulence model type RAS
Selecting RAS turbulence model kEpsilon
kEpsilonCoeffs
{
    C3              -0.33;
    Cmu             0.09;
    sigmak          1;
    C1              1.44;
    sigmaEps        1.3;
    C2              1.92;
}

Creating finite volume options from "system/fvOptions"

fluxScheme: Kurganov

Starting time loop

Sampled surface:
    CentralSlice -> foam
        sampledPlane: CentralSlice : origin:(0 0 0) normal:(0 0 1) triangulate:1
    TransverseSlice -> foam
        sampledPlane: TransverseSlice : origin:(0.0005 0 0) normal:(1 0 0) triangulate:1

Mean and max Courant Numbers = 9.914558e-06 8.130153e-05
Time = 1e-12

diagonal:  Solving for rho, Initial residual = 0, Final residual = 0, No Iterations 0
diagonal:  Solving for rhoUx, Initial residual = 0, Final residual = 0, No Iterations 0
diagonal:  Solving for rhoUy, Initial residual = 0, Final residual = 0, No Iterations 0
diagonal:  Solving for rhoUz, Initial residual = 0, Final residual = 0, No Iterations 0
DICPCG:  Solving for Ux, Initial residual = 7.461676e-07, Final residual = 7.461676e-07, No Iterations 0
DICPCG:  Solving for Uy, Initial residual = 0.0001635735, Final residual = 2.030764e-10, No Iterations 1
DICPCG:  Solving for Uz, Initial residual = 0.0001608909, Final residual = 1.075761e-09, No Iterations 1
diagonal:  Solving for rhoE, Initial residual = 0, Final residual = 0, No Iterations 0
DICPCG:  Solving for h, Initial residual = 2.800365e-06, Final residual = 2.800365e-06, No Iterations 0
DILUPBiCGStab:  Solving for epsilon, Initial residual = 1.296798e-06, Final residual = 1.296798e-06, No Iterations 0
DILUPBiCGStab:  Solving for k, Initial residual = 0.9999956, Final residual = 2.317447e-06, No Iterations 1
ExecutionTime = 0.07 s  ClockTime = 0 s

Mean and max Courant Numbers = 9.914559e-06 8.130153e-05
Time = 2e-12

diagonal:  Solving for rho, Initial residual = 0, Final residual = 0, No Iterations 0
diagonal:  Solving for rhoUx, Initial residual = 0, Final residual = 0, No Iterations 0
diagonal:  Solving for rhoUy, Initial residual = 0, Final residual = 0, No Iterations 0
diagonal:  Solving for rhoUz, Initial residual = 0, Final residual = 0, No Iterations 0
DICPCG:  Solving for Ux, Initial residual = 5.08137e-07, Final residual = 5.08137e-07, No Iterations 0
DICPCG:  Solving for Uy, Initial residual = 0.000125881, Final residual = 6.189482e-11, No Iterations 1
DICPCG:  Solving for Uz, Initial residual = 0.0001238353, Final residual = 4.241562e-10, No Iterations 1
diagonal:  Solving for rhoE, Initial residual = 0, Final residual = 0, No Iterations 0
DICPCG:  Solving for h, Initial residual = 1.356204e-06, Final residual = 1.356204e-06, No Iterations 0
DILUPBiCGStab:  Solving for epsilon, Initial residual = 6.820722e-07, Final residual = 6.820722e-07, No Iterations 0
DILUPBiCGStab:  Solving for k, Initial residual = 0.005444059, Final residual = 7.466927e-09, No Iterations 1
ExecutionTime = 0.11 s  ClockTime = 0 s

Mean and max Courant Numbers = 9.914559e-06 8.130153e-05
Time = 3e-12

diagonal:  Solving for rho, Initial residual = 0, Final residual = 0, No Iterations 0
diagonal:  Solving for rhoUx, Initial residual = 0, Final residual = 0, No Iterations 0
diagonal:  Solving for rhoUy, Initial residual = 0, Final residual = 0, No Iterations 0
diagonal:  Solving for rhoUz, Initial residual = 0, Final residual = 0, No Iterations 0
DICPCG:  Solving for Ux, Initial residual = 5.435206e-07, Final residual = 5.435206e-07, No Iterations 0
DICPCG:  Solving for Uy, Initial residual = 0.0001310668, Final residual = 6.194917e-11, No Iterations 1
DICPCG:  Solving for Uz, Initial residual = 0.0001290661, Final residual = 4.306965e-10, No Iterations 1
diagonal:  Solving for rhoE, Initial residual = 0, Final residual = 0, No Iterations 0
DICPCG:  Solving for h, Initial residual = 1.328471e-06, Final residual = 1.328471e-06, No Iterations 0
DILUPBiCGStab:  Solving for epsilon, Initial residual = 6.820523e-07, Final residual = 6.820523e-07, No Iterations 0
DILUPBiCGStab:  Solving for k, Initial residual = 0.004095605, Final residual = 5.682942e-09, No Iterations 1
ExecutionTime = 0.14 s  ClockTime = 0 s

Mean and max Courant Numbers = 9.914559e-06 8.130153e-05
Time = 4e-12

diagonal:  Solving for rho, Initial residual = 0, Final residual = 0, No Iterations 0
diagonal:  Solving for rhoUx, Initial residual = 0, Final residual = 0, No Iterations 0
diagonal:  Solving for rhoUy, Initial residual = 0, Final residual = 0, No Iterations 0
diagonal:  Solving for rhoUz, Initial residual = 0, Final residual = 0, No Iterations 0
DICPCG:  Solving for Ux, Initial residual = 5.532388e-07, Final residual = 5.532388e-07, No Iterations 0
DICPCG:  Solving for Uy, Initial residual = 0.0001341796, Final residual = 6.265595e-11, No Iterations 1
DICPCG:  Solving for Uz, Initial residual = 0.0001322529, Final residual = 4.386259e-10, No Iterations 1
diagonal:  Solving for rhoE, Initial residual = 0, Final residual = 0, No Iterations 0
DICPCG:  Solving for h, Initial residual = 1.333572e-06, Final residual = 1.333572e-06, No Iterations 0
DILUPBiCGStab:  Solving for epsilon, Initial residual = 6.820147e-07, Final residual = 6.820147e-07, No Iterations 0
DILUPBiCGStab:  Solving for k, Initial residual = 0.00275955, Final residual = 3.686934e-09, No Iterations 1
ExecutionTime = 0.18 s  ClockTime = 0 s

Mean and max Courant Numbers = 9.91456e-06 8.130153e-05
Time = 5e-12

diagonal:  Solving for rho, Initial residual = 0, Final residual = 0, No Iterations 0
diagonal:  Solving for rhoUx, Initial residual = 0, Final residual = 0, No Iterations 0
diagonal:  Solving for rhoUy, Initial residual = 0, Final residual = 0, No Iterations 0
diagonal:  Solving for rhoUz, Initial residual = 0, Final residual = 0, No Iterations 0
DICPCG:  Solving for Ux, Initial residual = 5.570088e-07, Final residual = 5.570088e-07, No Iterations 0
DICPCG:  Solving for Uy, Initial residual = 0.0001354726, Final residual = 6.31892e-11, No Iterations 1
DICPCG:  Solving for Uz, Initial residual = 0.0001336496, Final residual = 4.424372e-10, No Iterations 1
diagonal:  Solving for rhoE, Initial residual = 0, Final residual = 0, No Iterations 0
DICPCG:  Solving for h, Initial residual = 1.333094e-06, Final residual = 1.333094e-06, No Iterations 0
DILUPBiCGStab:  Solving for epsilon, Initial residual = 6.819679e-07, Final residual = 6.819679e-07, No Iterations 0
DILUPBiCGStab:  Solving for k, Initial residual = 0.001941932, Final residual = 2.486008e-09, No Iterations 1
ExecutionTime = 0.21 s  ClockTime = 0 s

Mean and max Courant Numbers = 9.91456e-06 8.130153e-05
Time = 6e-12

diagonal:  Solving for rho, Initial residual = 0, Final residual = 0, No Iterations 0
diagonal:  Solving for rhoUx, Initial residual = 0, Final residual = 0, No Iterations 0
diagonal:  Solving for rhoUy, Initial residual = 0, Final residual = 0, No Iterations 0
diagonal:  Solving for rhoUz, Initial residual = 0, Final residual = 0, No Iterations 0
DICPCG:  Solving for Ux, Initial residual = 5.597465e-07, Final residual = 5.597465e-07, No Iterations 0
DICPCG:  Solving for Uy, Initial residual = 0.0001364072, Final residual = 6.354493e-11, No Iterations 1
DICPCG:  Solving for Uz, Initial residual = 0.0001346764, Final residual = 4.451822e-10, No Iterations 1
diagonal:  Solving for rhoE, Initial residual = 0, Final residual = 0, No Iterations 0
DICPCG:  Solving for h, Initial residual = 1.336321e-06, Final residual = 1.336321e-06, No Iterations 0
DILUPBiCGStab:  Solving for epsilon, Initial residual = 6.819396e-07, Final residual = 6.819396e-07, No Iterations 0
DILUPBiCGStab:  Solving for k, Initial residual = 0.001503882, Final residual = 1.892479e-09, No Iterations 1
ExecutionTime = 0.24 s  ClockTime = 0 s

Mean and max Courant Numbers = 9.914561e-06 8.130153e-05
Time = 7e-12

diagonal:  Solving for rho, Initial residual = 0, Final residual = 0, No Iterations 0
diagonal:  Solving for rhoUx, Initial residual = 0, Final residual = 0, No Iterations 0
diagonal:  Solving for rhoUy, Initial residual = 0, Final residual = 0, No Iterations 0
diagonal:  Solving for rhoUz, Initial residual = 0, Final residual = 0, No Iterations 0
DICPCG:  Solving for Ux, Initial residual = 5.618307e-07, Final residual = 5.618307e-07, No Iterations 0
DICPCG:  Solving for Uy, Initial residual = 0.0001371181, Final residual = 6.38062e-11, No Iterations 1
DICPCG:  Solving for Uz, Initial residual = 0.0001354699, Final residual = 4.472867e-10, No Iterations 1
diagonal:  Solving for rhoE, Initial residual = 0, Final residual = 0, No Iterations 0
DICPCG:  Solving for h, Initial residual = 1.341895e-06, Final residual = 1.341895e-06, No Iterations 0
DILUPBiCGStab:  Solving for epsilon, Initial residual = 6.819123e-07, Final residual = 6.819123e-07, No Iterations 0
DILUPBiCGStab:  Solving for k, Initial residual = 0.001218266, Final residual = 1.520192e-09, No Iterations 1
ExecutionTime = 0.27 s  ClockTime = 0 s

Mean and max Courant Numbers = 9.914561e-06 8.130153e-05
Time = 8e-12

diagonal:  Solving for rho, Initial residual = 0, Final residual = 0, No Iterations 0
diagonal:  Solving for rhoUx, Initial residual = 0, Final residual = 0, No Iterations 0
diagonal:  Solving for rhoUy, Initial residual = 0, Final residual = 0, No Iterations 0
diagonal:  Solving for rhoUz, Initial residual = 0, Final residual = 0, No Iterations 0
DICPCG:  Solving for Ux, Initial residual = 5.634903e-07, Final residual = 5.634903e-07, No Iterations 0
DICPCG:  Solving for Uy, Initial residual = 0.0001376777, Final residual = 6.399379e-11, No Iterations 1
DICPCG:  Solving for Uz, Initial residual = 0.0001361086, Final residual = 4.489805e-10, No Iterations 1
diagonal:  Solving for rhoE, Initial residual = 0, Final residual = 0, No Iterations 0
DICPCG:  Solving for h, Initial residual = 1.349539e-06, Final residual = 1.349539e-06, No Iterations 0
DILUPBiCGStab:  Solving for epsilon, Initial residual = 6.818922e-07, Final residual = 6.818922e-07, No Iterations 0
DILUPBiCGStab:  Solving for k, Initial residual = 0.001023517, Final residual = 1.280533e-09, No Iterations 1
ExecutionTime = 0.31 s  ClockTime = 0 s

Mean and max Courant Numbers = 9.914561e-06 8.130153e-05
Time = 9e-12

diagonal:  Solving for rho, Initial residual = 0, Final residual = 0, No Iterations 0
diagonal:  Solving for rhoUx, Initial residual = 0, Final residual = 0, No Iterations 0
diagonal:  Solving for rhoUy, Initial residual = 0, Final residual = 0, No Iterations 0
diagonal:  Solving for rhoUz, Initial residual = 0, Final residual = 0, No Iterations 0
DICPCG:  Solving for Ux, Initial residual = 5.648611e-07, Final residual = 5.648611e-07, No Iterations 0
DICPCG:  Solving for Uy, Initial residual = 0.0001381308, Final residual = 6.413188e-11, No Iterations 1
DICPCG:  Solving for Uz, Initial residual = 0.0001366422, Final residual = 4.503986e-10, No Iterations 1
diagonal:  Solving for rhoE, Initial residual = 0, Final residual = 0, No Iterations 0
DICPCG:  Solving for h, Initial residual = 1.359335e-06, Final residual = 1.359335e-06, No Iterations 0
DILUPBiCGStab:  Solving for epsilon, Initial residual = 6.81885e-07, Final residual = 6.81885e-07, No Iterations 0
DILUPBiCGStab:  Solving for k, Initial residual = 0.0008889672, Final residual = 1.129389e-09, No Iterations 1
ExecutionTime = 0.34 s  ClockTime = 0 s

Mean and max Courant Numbers = 9.914562e-06 8.130153e-05
Time = 1e-11

diagonal:  Solving for rho, Initial residual = 0, Final residual = 0, No Iterations 0
diagonal:  Solving for rhoUx, Initial residual = 0, Final residual = 0, No Iterations 0
diagonal:  Solving for rhoUy, Initial residual = 0, Final residual = 0, No Iterations 0
diagonal:  Solving for rhoUz, Initial residual = 0, Final residual = 0, No Iterations 0
DICPCG:  Solving for Ux, Initial residual = 5.660273e-07, Final residual = 5.660273e-07, No Iterations 0
DICPCG:  Solving for Uy, Initial residual = 0.0001385101, Final residual = 6.423555e-11, No Iterations 1
DICPCG:  Solving for Uz, Initial residual = 0.0001371006, Final residual = 4.516226e-10, No Iterations 1
diagonal:  Solving for rhoE, Initial residual = 0, Final residual = 0, No Iterations 0
DICPCG:  Solving for h, Initial residual = 1.371792e-06, Final residual = 1.371792e-06, No Iterations 0
DILUPBiCGStab:  Solving for epsilon, Initial residual = 6.818872e-07, Final residual = 6.818872e-07, No Iterations 0
DILUPBiCGStab:  Solving for k, Initial residual = 0.0007877421, Final residual = 1.016168e-09, No Iterations 1
ExecutionTime = 0.38 s  ClockTime = 0 s

Mean and max Courant Numbers = 9.914562e-06 8.130153e-05
Time = 1.1e-11

diagonal:  Solving for rho, Initial residual = 0, Final residual = 0, No Iterations 0
diagonal:  Solving for rhoUx, Initial residual = 0, Final residual = 0, No Iterations 0
diagonal:  Solving for rhoUy, Initial residual = 0, Final residual = 0, No Iterations 0
diagonal:  Solving for rhoUz, Initial residual = 0, Final residual = 0, No Iterations 0
DICPCG:  Solving for Ux, Initial residual = 5.670435e-07, Final residual = 5.670435e-07, No Iterations 0
DICPCG:  Solving for Uy, Initial residual = 0.000138834, Final residual = 6.431411e-11, No Iterations 1
DICPCG:  Solving for Uz, Initial residual = 0.0001375041, Final residual = 4.52706e-10, No Iterations 1
diagonal:  Solving for rhoE, Initial residual = 0, Final residual = 0, No Iterations 0
DICPCG:  Solving for h, Initial residual = 1.387523e-06, Final residual = 1.387523e-06, No Iterations 0
DILUPBiCGStab:  Solving for epsilon, Initial residual = 6.819017e-07, Final residual = 6.819017e-07, No Iterations 0
DILUPBiCGStab:  Solving for k, Initial residual = 0.0007078697, Final residual = 9.260351e-10, No Iterations 1
ExecutionTime = 0.41 s  ClockTime = 0 s

Mean and max Courant Numbers = 9.914563e-06 8.130153e-05
Time = 1.2e-11

diagonal:  Solving for rho, Initial residual = 0, Final residual = 0, No Iterations 0
diagonal:  Solving for rhoUx, Initial residual = 0, Final residual = 0, No Iterations 0
diagonal:  Solving for rhoUy, Initial residual = 0, Final residual = 0, No Iterations 0
diagonal:  Solving for rhoUz, Initial residual = 0, Final residual = 0, No Iterations 0
DICPCG:  Solving for Ux, Initial residual = 5.679464e-07, Final residual = 5.679464e-07, No Iterations 0
DICPCG:  Solving for Uy, Initial residual = 0.0001391162, Final residual = 6.437457e-11, No Iterations 1
DICPCG:  Solving for Uz, Initial residual = 0.0001378668, Final residual = 4.536857e-10, No Iterations 1
diagonal:  Solving for rhoE, Initial residual = 0, Final residual = 0, No Iterations 0
DICPCG:  Solving for h, Initial residual = 1.408104e-06, Final residual = 1.408104e-06, No Iterations 0
DILUPBiCGStab:  Solving for epsilon, Initial residual = 6.819308e-07, Final residual = 6.819308e-07, No Iterations 0
DILUPBiCGStab:  Solving for k, Initial residual = 0.0006433925, Final residual = 8.527217e-10, No Iterations 1
ExecutionTime = 0.44 s  ClockTime = 0 s

Mean and max Courant Numbers = 9.914563e-06 8.130153e-05
Time = 1.3e-11

diagonal:  Solving for rho, Initial residual = 0, Final residual = 0, No Iterations 0
diagonal:  Solving for rhoUx, Initial residual = 0, Final residual = 0, No Iterations 0
diagonal:  Solving for rhoUy, Initial residual = 0, Final residual = 0, No Iterations 0
diagonal:  Solving for rhoUz, Initial residual = 0, Final residual = 0, No Iterations 0
DICPCG:  Solving for Ux, Initial residual = 5.687617e-07, Final residual = 5.687617e-07, No Iterations 0
DICPCG:  Solving for Uy, Initial residual = 0.0001393662, Final residual = 6.442038e-11, No Iterations 1
DICPCG:  Solving for Uz, Initial residual = 0.0001381975, Final residual = 4.545925e-10, No Iterations 1
diagonal:  Solving for rhoE, Initial residual = 0, Final residual = 0, No Iterations 0
DICPCG:  Solving for h, Initial residual = 1.435935e-06, Final residual = 1.435935e-06, No Iterations 0
DILUPBiCGStab:  Solving for epsilon, Initial residual = 6.819766e-07, Final residual = 6.819766e-07, No Iterations 0
DILUPBiCGStab:  Solving for k, Initial residual = 0.0005903618, Final residual = 7.921012e-10, No Iterations 1
ExecutionTime = 0.48 s  ClockTime = 0 s

Mean and max Courant Numbers = 9.914564e-06 8.130153e-05
Time = 1.4e-11

diagonal:  Solving for rho, Initial residual = 0, Final residual = 0, No Iterations 0
diagonal:  Solving for rhoUx, Initial residual = 0, Final residual = 0, No Iterations 0
diagonal:  Solving for rhoUy, Initial residual = 0, Final residual = 0, No Iterations 0
diagonal:  Solving for rhoUz, Initial residual = 0, Final residual = 0, No Iterations 0
DICPCG:  Solving for Ux, Initial residual = 5.695081e-07, Final residual = 5.695081e-07, No Iterations 0
DICPCG:  Solving for Uy, Initial residual = 0.0001395909, Final residual = 6.445503e-11, No Iterations 1
DICPCG:  Solving for Uz, Initial residual = 0.0001385032, Final residual = 4.55462e-10, No Iterations 1
diagonal:  Solving for rhoE, Initial residual = 0, Final residual = 0, No Iterations 0
DICPCG:  Solving for h, Initial residual = 1.475517e-06, Final residual = 1.475517e-06, No Iterations 0
DILUPBiCGStab:  Solving for epsilon, Initial residual = 6.820418e-07, Final residual = 6.820418e-07, No Iterations 0
DILUPBiCGStab:  Solving for k, Initial residual = 0.0005461084, Final residual = 7.413782e-10, No Iterations 1
ExecutionTime = 0.51 s  ClockTime = 0 s

Mean and max Courant Numbers = 9.914564e-06 8.130153e-05
Time = 1.5e-11

diagonal:  Solving for rho, Initial residual = 0, Final residual = 0, No Iterations 0
diagonal:  Solving for rhoUx, Initial residual = 0, Final residual = 0, No Iterations 0
diagonal:  Solving for rhoUy, Initial residual = 0, Final residual = 0, No Iterations 0
diagonal:  Solving for rhoUz, Initial residual = 0, Final residual = 0, No Iterations 0
DICPCG:  Solving for Ux, Initial residual = 5.701989e-07, Final residual = 5.701989e-07, No Iterations 0
DICPCG:  Solving for Uy, Initial residual = 0.0001397973, Final residual = 6.448117e-11, No Iterations 1
DICPCG:  Solving for Uz, Initial residual = 0.0001387931, Final residual = 4.562771e-10, No Iterations 1
diagonal:  Solving for rhoE, Initial residual = 0, Final residual = 0, No Iterations 0
DICPCG:  Solving for h, Initial residual = 1.536545e-06, Final residual = 1.536545e-06, No Iterations 0
DILUPBiCGStab:  Solving for epsilon, Initial residual = 6.821295e-07, Final residual = 6.821295e-07, No Iterations 0
DILUPBiCGStab:  Solving for k, Initial residual = 0.0005086608, Final residual = 6.980604e-10, No Iterations 1
ExecutionTime = 0.54 s  ClockTime = 1 s

Mean and max Courant Numbers = 9.914564e-06 8.130153e-05
Time = 1.6e-11

diagonal:  Solving for rho, Initial residual = 0, Final residual = 0, No Iterations 0
diagonal:  Solving for rhoUx, Initial residual = 0, Final residual = 0, No Iterations 0
diagonal:  Solving for rhoUy, Initial residual = 0, Final residual = 0, No Iterations 0
diagonal:  Solving for rhoUz, Initial residual = 0, Final residual = 0, No Iterations 0
DICPCG:  Solving for Ux, Initial residual = 5.708446e-07, Final residual = 5.708446e-07, No Iterations 0
DICPCG:  Solving for Uy, Initial residual = 0.0001399912, Final residual = 6.452541e-11, No Iterations 1
DICPCG:  Solving for Uz, Initial residual = 0.0001390688, Final residual = 4.570485e-10, No Iterations 1
diagonal:  Solving for rhoE, Initial residual = 0, Final residual = 0, No Iterations 0
DICPCG:  Solving for h, Initial residual = 1.642882e-06, Final residual = 1.642882e-06, No Iterations 0
DILUPBiCGStab:  Solving for epsilon, Initial residual = 6.822433e-07, Final residual = 6.822433e-07, No Iterations 0
DILUPBiCGStab:  Solving for k, Initial residual = 0.0004767506, Final residual = 6.610177e-10, No Iterations 1
ExecutionTime = 0.57 s  ClockTime = 1 s

Mean and max Courant Numbers = 9.914565e-06 8.130153e-05
Time = 1.7e-11

diagonal:  Solving for rho, Initial residual = 0, Final residual = 0, No Iterations 0
diagonal:  Solving for rhoUx, Initial residual = 0, Final residual = 0, No Iterations 0
diagonal:  Solving for rhoUy, Initial residual = 0, Final residual = 0, No Iterations 0
diagonal:  Solving for rhoUz, Initial residual = 0, Final residual = 0, No Iterations 0
DICPCG:  Solving for Ux, Initial residual = 5.71453e-07, Final residual = 5.71453e-07, No Iterations 0
DICPCG:  Solving for Uy, Initial residual = 0.0001401711, Final residual = 6.456297e-11, No Iterations 1
DICPCG:  Solving for Uz, Initial residual = 0.0001393309, Final residual = 4.57784e-10, No Iterations 1
diagonal:  Solving for rhoE, Initial residual = 0, Final residual = 0, No Iterations 0
DICPCG:  Solving for h, Initial residual = 1.868403e-06, Final residual = 1.868403e-06, No Iterations 0
DILUPBiCGStab:  Solving for epsilon, Initial residual = 6.823824e-07, Final residual = 6.823824e-07, No Iterations 0
DILUPBiCGStab:  Solving for k, Initial residual = 0.0004492446, Final residual = 6.295177e-10, No Iterations 1
ExecutionTime = 0.61 s  ClockTime = 1 s

Mean and max Courant Numbers = 9.914565e-06 8.130153e-05
Time = 1.8e-11

diagonal:  Solving for rho, Initial residual = 0, Final residual = 0, No Iterations 0
diagonal:  Solving for rhoUx, Initial residual = 0, Final residual = 0, No Iterations 0
diagonal:  Solving for rhoUy, Initial residual = 0, Final residual = 0, No Iterations 0
diagonal:  Solving for rhoUz, Initial residual = 0, Final residual = 0, No Iterations 0
DICPCG:  Solving for Ux, Initial residual = 5.720302e-07, Final residual = 5.720302e-07, No Iterations 0
DICPCG:  Solving for Uy, Initial residual = 0.000140339, Final residual = 6.45931e-11, No Iterations 1
DICPCG:  Solving for Uz, Initial residual = 0.0001395813, Final residual = 4.5849e-10, No Iterations 1
diagonal:  Solving for rhoE, Initial residual = 0, Final residual = 0, No Iterations 0
DICPCG:  Solving for h, Initial residual = 2.643563e-06, Final residual = 2.643563e-06, No Iterations 0
DILUPBiCGStab:  Solving for epsilon, Initial residual = 6.825485e-07, Final residual = 6.825485e-07, No Iterations 0
DILUPBiCGStab:  Solving for k, Initial residual = 0.0004254514, Final residual = 6.018981e-10, No Iterations 1
ExecutionTime = 0.65 s  ClockTime = 1 s

Mean and max Courant Numbers = 9.914566e-06 8.130153e-05
Time = 1.9e-11

diagonal:  Solving for rho, Initial residual = 0, Final residual = 0, No Iterations 0
diagonal:  Solving for rhoUx, Initial residual = 0, Final residual = 0, No Iterations 0
diagonal:  Solving for rhoUy, Initial residual = 0, Final residual = 0, No Iterations 0
diagonal:  Solving for rhoUz, Initial residual = 0, Final residual = 0, No Iterations 0
DICPCG:  Solving for Ux, Initial residual = 5.72581e-07, Final residual = 5.72581e-07, No Iterations 0
DICPCG:  Solving for Uy, Initial residual = 0.0001404969, Final residual = 6.461739e-11, No Iterations 1
DICPCG:  Solving for Uz, Initial residual = 0.0001398221, Final residual = 4.591717e-10, No Iterations 1
diagonal:  Solving for rhoE, Initial residual = 0, Final residual = 0, No Iterations 0
DICPCG:  Solving for h, Initial residual = 1.827408e-05, Final residual = 1.827408e-05, No Iterations 0
DILUPBiCGStab:  Solving for epsilon, Initial residual = 6.827432e-07, Final residual = 6.827432e-07, No Iterations 0
DILUPBiCGStab:  Solving for k, Initial residual = 0.0004044551, Final residual = 5.772699e-10, No Iterations 1
ExecutionTime = 0.68 s  ClockTime = 1 s

Mean and max Courant Numbers = 9.914566e-06 8.130153e-05
Time = 2e-11

diagonal:  Solving for rho, Initial residual = 0, Final residual = 0, No Iterations 0
diagonal:  Solving for rhoUx, Initial residual = 0, Final residual = 0, No Iterations 0
diagonal:  Solving for rhoUy, Initial residual = 0, Final residual = 0, No Iterations 0
diagonal:  Solving for rhoUz, Initial residual = 0, Final residual = 0, No Iterations 0
DICPCG:  Solving for Ux, Initial residual = 5.731093e-07, Final residual = 5.731093e-07, No Iterations 0
DICPCG:  Solving for Uy, Initial residual = 0.0001406462, Final residual = 6.463717e-11, No Iterations 1
DICPCG:  Solving for Uz, Initial residual = 0.0001400549, Final residual = 4.598332e-10, No Iterations 1
diagonal:  Solving for rhoE, Initial residual = 0, Final residual = 0, No Iterations 0
DICPCG:  Solving for h, Initial residual = 1.520692e-06, Final residual = 1.520692e-06, No Iterations 0
DILUPBiCGStab:  Solving for epsilon, Initial residual = 6.829681e-07, Final residual = 6.829681e-07, No Iterations 0
DILUPBiCGStab:  Solving for k, Initial residual = 0.0003857959, Final residual = 5.551527e-10, No Iterations 1
ExecutionTime = 0.71 s  ClockTime = 1 s

Mean and max Courant Numbers = 9.914566e-06 8.130153e-05
Time = 2.1e-11

diagonal:  Solving for rho, Initial residual = 0, Final residual = 0, No Iterations 0
diagonal:  Solving for rhoUx, Initial residual = 0, Final residual = 0, No Iterations 0
diagonal:  Solving for rhoUy, Initial residual = 0, Final residual = 0, No Iterations 0
diagonal:  Solving for rhoUz, Initial residual = 0, Final residual = 0, No Iterations 0
DICPCG:  Solving for Ux, Initial residual = 5.736184e-07, Final residual = 5.736184e-07, No Iterations 0
DICPCG:  Solving for Uy, Initial residual = 0.0001407882, Final residual = 6.46535e-11, No Iterations 1
DICPCG:  Solving for Uz, Initial residual = 0.0001402807, Final residual = 4.60478e-10, No Iterations 1
diagonal:  Solving for rhoE, Initial residual = 0, Final residual = 0, No Iterations 0
DICPCG:  Solving for h, Initial residual = 1.225861e-06, Final residual = 1.225861e-06, No Iterations 0
DILUPBiCGStab:  Solving for epsilon, Initial residual = 6.832246e-07, Final residual = 6.832246e-07, No Iterations 0
DILUPBiCGStab:  Solving for k, Initial residual = 0.0003691187, Final residual = 5.3517e-10, No Iterations 1
ExecutionTime = 0.73 s  ClockTime = 1 s

Mean and max Courant Numbers = 9.914567e-06 8.130153e-05
Time = 2.2e-11

diagonal:  Solving for rho, Initial residual = 0, Final residual = 0, No Iterations 0
diagonal:  Solving for rhoUx, Initial residual = 0, Final residual = 0, No Iterations 0
diagonal:  Solving for rhoUy, Initial residual = 0, Final residual = 0, No Iterations 0
diagonal:  Solving for rhoUz, Initial residual = 0, Final residual = 0, No Iterations 0
DICPCG:  Solving for Ux, Initial residual = 5.741106e-07, Final residual = 5.741106e-07, No Iterations 0
DICPCG:  Solving for Uy, Initial residual = 0.0001409238, Final residual = 6.466727e-11, No Iterations 1
DICPCG:  Solving for Uz, Initial residual = 0.0001405007, Final residual = 4.611088e-10, No Iterations 1
diagonal:  Solving for rhoE, Initial residual = 0, Final residual = 0, No Iterations 0
DICPCG:  Solving for h, Initial residual = 1.163354e-06, Final residual = 1.163354e-06, No Iterations 0
DILUPBiCGStab:  Solving for epsilon, Initial residual = 6.835142e-07, Final residual = 6.835142e-07, No Iterations 0
DILUPBiCGStab:  Solving for k, Initial residual = 0.0003541387, Final residual = 5.170034e-10, No Iterations 1
ExecutionTime = 0.76 s  ClockTime = 1 s

Mean and max Courant Numbers = 9.914567e-06 8.130153e-05
Time = 2.3e-11

diagonal:  Solving for rho, Initial residual = 0, Final residual = 0, No Iterations 0
diagonal:  Solving for rhoUx, Initial residual = 0, Final residual = 0, No Iterations 0
diagonal:  Solving for rhoUy, Initial residual = 0, Final residual = 0, No Iterations 0
diagonal:  Solving for rhoUz, Initial residual = 0, Final residual = 0, No Iterations 0
DICPCG:  Solving for Ux, Initial residual = 5.745882e-07, Final residual = 5.745882e-07, No Iterations 0
DICPCG:  Solving for Uy, Initial residual = 0.0001410539, Final residual = 6.467888e-11, No Iterations 1
DICPCG:  Solving for Uz, Initial residual = 0.0001407157, Final residual = 4.617291e-10, No Iterations 1
diagonal:  Solving for rhoE, Initial residual = 0, Final residual = 0, No Iterations 0
DICPCG:  Solving for h, Initial residual = 1.152027e-06, Final residual = 1.152027e-06, No Iterations 0
DILUPBiCGStab:  Solving for epsilon, Initial residual = 6.83838e-07, Final residual = 6.83838e-07, No Iterations 0
DILUPBiCGStab:  Solving for k, Initial residual = 0.0003406254, Final residual = 5.003976e-10, No Iterations 1
ExecutionTime = 0.79 s  ClockTime = 1 s

Mean and max Courant Numbers = 9.914568e-06 8.130153e-05
Time = 2.4e-11

diagonal:  Solving for rho, Initial residual = 0, Final residual = 0, No Iterations 0
diagonal:  Solving for rhoUx, Initial residual = 0, Final residual = 0, No Iterations 0
diagonal:  Solving for rhoUy, Initial residual = 0, Final residual = 0, No Iterations 0
diagonal:  Solving for rhoUz, Initial residual = 0, Final residual = 0, No Iterations 0
DICPCG:  Solving for Ux, Initial residual = 5.75053e-07, Final residual = 5.75053e-07, No Iterations 0
DICPCG:  Solving for Uy, Initial residual = 0.0001411793, Final residual = 6.468791e-11, No Iterations 1
DICPCG:  Solving for Uz, Initial residual = 0.0001409264, Final residual = 4.623397e-10, No Iterations 1
diagonal:  Solving for rhoE, Initial residual = 0, Final residual = 0, No Iterations 0
DICPCG:  Solving for h, Initial residual = 1.158706e-06, Final residual = 1.158706e-06, No Iterations 0
DILUPBiCGStab:  Solving for epsilon, Initial residual = 6.841974e-07, Final residual = 6.841974e-07, No Iterations 0
DILUPBiCGStab:  Solving for k, Initial residual = 0.0003283912, Final residual = 4.851396e-10, No Iterations 1
ExecutionTime = 0.82 s  ClockTime = 1 s

Mean and max Courant Numbers = 9.914568e-06 8.130153e-05
Time = 2.5e-11

diagonal:  Solving for rho, Initial residual = 0, Final residual = 0, No Iterations 0
diagonal:  Solving for rhoUx, Initial residual = 0, Final residual = 0, No Iterations 0
diagonal:  Solving for rhoUy, Initial residual = 0, Final residual = 0, No Iterations 0
diagonal:  Solving for rhoUz, Initial residual = 0, Final residual = 0, No Iterations 0
DICPCG:  Solving for Ux, Initial residual = 5.755065e-07, Final residual = 5.755065e-07, No Iterations 0
DICPCG:  Solving for Uy, Initial residual = 0.0001413005, Final residual = 6.469581e-11, No Iterations 1
DICPCG:  Solving for Uz, Initial residual = 0.0001411335, Final residual = 4.629424e-10, No Iterations 1
diagonal:  Solving for rhoE, Initial residual = 0, Final residual = 0, No Iterations 0
DICPCG:  Solving for h, Initial residual = 1.171497e-06, Final residual = 1.171497e-06, No Iterations 0
DILUPBiCGStab:  Solving for epsilon, Initial residual = 6.845932e-07, Final residual = 6.845932e-07, No Iterations 0
DILUPBiCGStab:  Solving for k, Initial residual = 0.0003172825, Final residual = 4.710512e-10, No Iterations 1
ExecutionTime = 0.85 s  ClockTime = 1 s

Mean and max Courant Numbers = 9.914568e-06 8.130153e-05
Time = 2.6e-11

diagonal:  Solving for rho, Initial residual = 0, Final residual = 0, No Iterations 0
diagonal:  Solving for rhoUx, Initial residual = 0, Final residual = 0, No Iterations 0
diagonal:  Solving for rhoUy, Initial residual = 0, Final residual = 0, No Iterations 0
diagonal:  Solving for rhoUz, Initial residual = 0, Final residual = 0, No Iterations 0
DICPCG:  Solving for Ux, Initial residual = 5.759498e-07, Final residual = 5.759498e-07, No Iterations 0
DICPCG:  Solving for Uy, Initial residual = 0.0001414181, Final residual = 6.470317e-11, No Iterations 1
DICPCG:  Solving for Uz, Initial residual = 0.0001413374, Final residual = 4.635388e-10, No Iterations 1
diagonal:  Solving for rhoE, Initial residual = 0, Final residual = 0, No Iterations 0
DICPCG:  Solving for h, Initial residual = 1.183944e-06, Final residual = 1.183944e-06, No Iterations 0
DILUPBiCGStab:  Solving for epsilon, Initial residual = 6.850267e-07, Final residual = 6.850267e-07, No Iterations 0
DILUPBiCGStab:  Solving for k, Initial residual = 0.0003071734, Final residual = 4.579822e-10, No Iterations 1
ExecutionTime = 0.88 s  ClockTime = 1 s

Mean and max Courant Numbers = 9.914569e-06 8.130153e-05
Time = 2.7e-11

diagonal:  Solving for rho, Initial residual = 0, Final residual = 0, No Iterations 0
diagonal:  Solving for rhoUx, Initial residual = 0, Final residual = 0, No Iterations 0
diagonal:  Solving for rhoUy, Initial residual = 0, Final residual = 0, No Iterations 0
diagonal:  Solving for rhoUz, Initial residual = 0, Final residual = 0, No Iterations 0
DICPCG:  Solving for Ux, Initial residual = 5.763841e-07, Final residual = 5.763841e-07, No Iterations 0
DICPCG:  Solving for Uy, Initial residual = 0.0001415325, Final residual = 6.470996e-11, No Iterations 1
DICPCG:  Solving for Uz, Initial residual = 0.0001415387, Final residual = 4.641302e-10, No Iterations 1
diagonal:  Solving for rhoE, Initial residual = 0, Final residual = 0, No Iterations 0
DICPCG:  Solving for h, Initial residual = 1.194806e-06, Final residual = 1.194806e-06, No Iterations 0
DILUPBiCGStab:  Solving for epsilon, Initial residual = 6.854991e-07, Final residual = 6.854991e-07, No Iterations 0
DILUPBiCGStab:  Solving for k, Initial residual = 0.0002979609, Final residual = 4.458027e-10, No Iterations 1
ExecutionTime = 0.9 s  ClockTime = 1 s

Mean and max Courant Numbers = 9.914569e-06 8.130153e-05
Time = 2.8e-11

diagonal:  Solving for rho, Initial residual = 0, Final residual = 0, No Iterations 0
diagonal:  Solving for rhoUx, Initial residual = 0, Final residual = 0, No Iterations 0
diagonal:  Solving for rhoUy, Initial residual = 0, Final residual = 0, No Iterations 0
diagonal:  Solving for rhoUz, Initial residual = 0, Final residual = 0, No Iterations 0
DICPCG:  Solving for Ux, Initial residual = 5.768103e-07, Final residual = 5.768103e-07, No Iterations 0
DICPCG:  Solving for Uy, Initial residual = 0.0001416442, Final residual = 6.471539e-11, No Iterations 1
DICPCG:  Solving for Uz, Initial residual = 0.0001417377, Final residual = 4.647178e-10, No Iterations 1
diagonal:  Solving for rhoE, Initial residual = 0, Final residual = 0, No Iterations 0
DICPCG:  Solving for h, Initial residual = 1.205085e-06, Final residual = 1.205085e-06, No Iterations 0
DILUPBiCGStab:  Solving for epsilon, Initial residual = 6.860106e-07, Final residual = 6.860106e-07, No Iterations 0
DILUPBiCGStab:  Solving for k, Initial residual = 0.0002895615, Final residual = 4.343996e-10, No Iterations 1
ExecutionTime = 0.93 s  ClockTime = 1 s

Mean and max Courant Numbers = 9.91457e-06 8.130153e-05
Time = 2.9e-11

diagonal:  Solving for rho, Initial residual = 0, Final residual = 0, No Iterations 0
diagonal:  Solving for rhoUx, Initial residual = 0, Final residual = 0, No Iterations 0
diagonal:  Solving for rhoUy, Initial residual = 0, Final residual = 0, No Iterations 0
diagonal:  Solving for rhoUz, Initial residual = 0, Final residual = 0, No Iterations 0
DICPCG:  Solving for Ux, Initial residual = 5.772292e-07, Final residual = 5.772292e-07, No Iterations 0
DICPCG:  Solving for Uy, Initial residual = 0.0001417535, Final residual = 6.471966e-11, No Iterations 1
DICPCG:  Solving for Uz, Initial residual = 0.0001419348, Final residual = 4.653026e-10, No Iterations 1
diagonal:  Solving for rhoE, Initial residual = 0, Final residual = 0, No Iterations 0
DICPCG:  Solving for h, Initial residual = 1.214102e-06, Final residual = 1.214102e-06, No Iterations 0
DILUPBiCGStab:  Solving for epsilon, Initial residual = 6.865611e-07, Final residual = 6.865611e-07, No Iterations 0
DILUPBiCGStab:  Solving for k, Initial residual = 0.0002819114, Final residual = 4.236975e-10, No Iterations 1
ExecutionTime = 0.96 s  ClockTime = 1 s

Mean and max Courant Numbers = 9.91457e-06 8.130153e-05
Time = 3e-11

diagonal:  Solving for rho, Initial residual = 0, Final residual = 0, No Iterations 0
diagonal:  Solving for rhoUx, Initial residual = 0, Final residual = 0, No Iterations 0
diagonal:  Solving for rhoUy, Initial residual = 0, Final residual = 0, No Iterations 0
diagonal:  Solving for rhoUz, Initial residual = 0, Final residual = 0, No Iterations 0
DICPCG:  Solving for Ux, Initial residual = 5.776414e-07, Final residual = 5.776414e-07, No Iterations 0
DICPCG:  Solving for Uy, Initial residual = 0.0001418607, Final residual = 6.472296e-11, No Iterations 1
DICPCG:  Solving for Uz, Initial residual = 0.0001421304, Final residual = 4.658857e-10, No Iterations 1
diagonal:  Solving for rhoE, Initial residual = 0, Final residual = 0, No Iterations 0
DICPCG:  Solving for h, Initial residual = 1.221926e-06, Final residual = 1.221926e-06, No Iterations 0
DILUPBiCGStab:  Solving for epsilon, Initial residual = 6.87151e-07, Final residual = 6.87151e-07, No Iterations 0
DILUPBiCGStab:  Solving for k, Initial residual = 0.0002749673, Final residual = 4.136082e-10, No Iterations 1
ExecutionTime = 0.98 s  ClockTime = 1 s

Mean and max Courant Numbers = 9.914571e-06 8.130153e-05
Time = 3.1e-11

diagonal:  Solving for rho, Initial residual = 0, Final residual = 0, No Iterations 0
diagonal:  Solving for rhoUx, Initial residual = 0, Final residual = 0, No Iterations 0
diagonal:  Solving for rhoUy, Initial residual = 0, Final residual = 0, No Iterations 0
diagonal:  Solving for rhoUz, Initial residual = 0, Final residual = 0, No Iterations 0
DICPCG:  Solving for Ux, Initial residual = 5.780475e-07, Final residual = 5.780475e-07, No Iterations 0
DICPCG:  Solving for Uy, Initial residual = 0.0001419661, Final residual = 6.472561e-11, No Iterations 1
DICPCG:  Solving for Uz, Initial residual = 0.0001423247, Final residual = 4.664681e-10, No Iterations 1
diagonal:  Solving for rhoE, Initial residual = 0, Final residual = 0, No Iterations 0
DICPCG:  Solving for h, Initial residual = 1.228814e-06, Final residual = 1.228814e-06, No Iterations 0
DILUPBiCGStab:  Solving for epsilon, Initial residual = 6.877804e-07, Final residual = 6.877804e-07, No Iterations 0
DILUPBiCGStab:  Solving for k, Initial residual = 0.0002687041, Final residual = 4.040507e-10, No Iterations 1
ExecutionTime = 1.02 s  ClockTime = 1 s

Mean and max Courant Numbers = 9.914571e-06 8.130153e-05
Time = 3.2e-11

diagonal:  Solving for rho, Initial residual = 0, Final residual = 0, No Iterations 0
diagonal:  Solving for rhoUx, Initial residual = 0, Final residual = 0, No Iterations 0
diagonal:  Solving for rhoUy, Initial residual = 0, Final residual = 0, No Iterations 0
diagonal:  Solving for rhoUz, Initial residual = 0, Final residual = 0, No Iterations 0
DICPCG:  Solving for Ux, Initial residual = 5.784481e-07, Final residual = 5.784481e-07, No Iterations 0
DICPCG:  Solving for Uy, Initial residual = 0.0001420702, Final residual = 6.47277e-11, No Iterations 1
DICPCG:  Solving for Uz, Initial residual = 0.0001425181, Final residual = 4.670506e-10, No Iterations 1
diagonal:  Solving for rhoE, Initial residual = 0, Final residual = 0, No Iterations 0
DICPCG:  Solving for h, Initial residual = 1.234964e-06, Final residual = 1.234964e-06, No Iterations 0
DILUPBiCGStab:  Solving for epsilon, Initial residual = 6.884494e-07, Final residual = 6.884494e-07, No Iterations 0
DILUPBiCGStab:  Solving for k, Initial residual = 0.0002630828, Final residual = 3.948913e-10, No Iterations 1
ExecutionTime = 1.04 s  ClockTime = 1 s

Mean and max Courant Numbers = 9.914571e-06 8.130153e-05
Time = 3.3e-11

diagonal:  Solving for rho, Initial residual = 0, Final residual = 0, No Iterations 0
diagonal:  Solving for rhoUx, Initial residual = 0, Final residual = 0, No Iterations 0
diagonal:  Solving for rhoUy, Initial residual = 0, Final residual = 0, No Iterations 0
diagonal:  Solving for rhoUz, Initial residual = 0, Final residual = 0, No Iterations 0
DICPCG:  Solving for Ux, Initial residual = 5.788435e-07, Final residual = 5.788435e-07, No Iterations 0
DICPCG:  Solving for Uy, Initial residual = 0.0001421731, Final residual = 6.472942e-11, No Iterations 1
DICPCG:  Solving for Uz, Initial residual = 0.0001427109, Final residual = 4.676342e-10, No Iterations 1
diagonal:  Solving for rhoE, Initial residual = 0, Final residual = 0, No Iterations 0
DICPCG:  Solving for h, Initial residual = 1.240537e-06, Final residual = 1.240537e-06, No Iterations 0
DILUPBiCGStab:  Solving for epsilon, Initial residual = 6.891577e-07, Final residual = 6.891577e-07, No Iterations 0
DILUPBiCGStab:  Solving for k, Initial residual = 0.0002580938, Final residual = 3.860256e-10, No Iterations 1
ExecutionTime = 1.07 s  ClockTime = 1 s

Mean and max Courant Numbers = 9.914572e-06 8.130153e-05
Time = 3.4e-11

diagonal:  Solving for rho, Initial residual = 0, Final residual = 0, No Iterations 0
diagonal:  Solving for rhoUx, Initial residual = 0, Final residual = 0, No Iterations 0
diagonal:  Solving for rhoUy, Initial residual = 0, Final residual = 0, No Iterations 0
diagonal:  Solving for rhoUz, Initial residual = 0, Final residual = 0, No Iterations 0
DICPCG:  Solving for Ux, Initial residual = 5.792341e-07, Final residual = 5.792341e-07, No Iterations 0
DICPCG:  Solving for Uy, Initial residual = 0.0001422752, Final residual = 6.473096e-11, No Iterations 1
DICPCG:  Solving for Uz, Initial residual = 0.0001429034, Final residual = 4.682196e-10, No Iterations 1
diagonal:  Solving for rhoE, Initial residual = 0, Final residual = 0, No Iterations 0
DICPCG:  Solving for h, Initial residual = 1.245694e-06, Final residual = 1.245694e-06, No Iterations 0
DILUPBiCGStab:  Solving for epsilon, Initial residual = 6.899053e-07, Final residual = 6.899053e-07, No Iterations 0
DILUPBiCGStab:  Solving for k, Initial residual = 0.000253754, Final residual = 3.773469e-10, No Iterations 1
ExecutionTime = 1.1 s  ClockTime = 1 s

Mean and max Courant Numbers = 9.914572e-06 8.130153e-05
Time = 3.5e-11

diagonal:  Solving for rho, Initial residual = 0, Final residual = 0, No Iterations 0
diagonal:  Solving for rhoUx, Initial residual = 0, Final residual = 0, No Iterations 0
diagonal:  Solving for rhoUy, Initial residual = 0, Final residual = 0, No Iterations 0
diagonal:  Solving for rhoUz, Initial residual = 0, Final residual = 0, No Iterations 0
DICPCG:  Solving for Ux, Initial residual = 5.796202e-07, Final residual = 5.796202e-07, No Iterations 0
DICPCG:  Solving for Uy, Initial residual = 0.0001423768, Final residual = 6.47327e-11, No Iterations 1
DICPCG:  Solving for Uz, Initial residual = 0.0001430959, Final residual = 4.688078e-10, No Iterations 1
diagonal:  Solving for rhoE, Initial residual = 0, Final residual = 0, No Iterations 0
DICPCG:  Solving for h, Initial residual = 1.250489e-06, Final residual = 1.250489e-06, No Iterations 0
DILUPBiCGStab:  Solving for epsilon, Initial residual = 6.906919e-07, Final residual = 6.906919e-07, No Iterations 0
DILUPBiCGStab:  Solving for k, Initial residual = 0.0002501068, Final residual = 3.687342e-10, No Iterations 1
ExecutionTime = 1.12 s  ClockTime = 1 s

Mean and max Courant Numbers = 9.914573e-06 8.130153e-05
Time = 3.6e-11

diagonal:  Solving for rho, Initial residual = 0, Final residual = 0, No Iterations 0
diagonal:  Solving for rhoUx, Initial residual = 0, Final residual = 0, No Iterations 0
diagonal:  Solving for rhoUy, Initial residual = 0, Final residual = 0, No Iterations 0
diagonal:  Solving for rhoUz, Initial residual = 0, Final residual = 0, No Iterations 0
DICPCG:  Solving for Ux, Initial residual = 5.800019e-07, Final residual = 5.800019e-07, No Iterations 0
DICPCG:  Solving for Uy, Initial residual = 0.0001424784, Final residual = 6.473535e-11, No Iterations 1
DICPCG:  Solving for Uz, Initial residual = 0.000143289, Final residual = 4.693997e-10, No Iterations 1
diagonal:  Solving for rhoE, Initial residual = 0, Final residual = 0, No Iterations 0
DICPCG:  Solving for h, Initial residual = 1.255014e-06, Final residual = 1.255014e-06, No Iterations 0
DILUPBiCGStab:  Solving for epsilon, Initial residual = 6.915176e-07, Final residual = 6.915176e-07, No Iterations 0
DILUPBiCGStab:  Solving for k, Initial residual = 0.0002472301, Final residual = 3.600441e-10, No Iterations 1
ExecutionTime = 1.15 s  ClockTime = 1 s

Mean and max Courant Numbers = 9.914573e-06 8.130153e-05
Time = 3.7e-11

diagonal:  Solving for rho, Initial residual = 0, Final residual = 0, No Iterations 0
diagonal:  Solving for rhoUx, Initial residual = 0, Final residual = 0, No Iterations 0
diagonal:  Solving for rhoUy, Initial residual = 0, Final residual = 0, No Iterations 0
diagonal:  Solving for rhoUz, Initial residual = 0, Final residual = 0, No Iterations 0
DICPCG:  Solving for Ux, Initial residual = 5.803795e-07, Final residual = 5.803795e-07, No Iterations 0
DICPCG:  Solving for Uy, Initial residual = 0.0001425805, Final residual = 6.473951e-11, No Iterations 1
DICPCG:  Solving for Uz, Initial residual = 0.0001434831, Final residual = 4.699963e-10, No Iterations 1
diagonal:  Solving for rhoE, Initial residual = 0, Final residual = 0, No Iterations 0
DICPCG:  Solving for h, Initial residual = 1.25929e-06, Final residual = 1.25929e-06, No Iterations 0
DILUPBiCGStab:  Solving for epsilon, Initial residual = 6.923833e-07, Final residual = 6.923833e-07, No Iterations 0
DILUPBiCGStab:  Solving for k, Initial residual = 0.0002452526, Final residual = 3.511067e-10, No Iterations 1
ExecutionTime = 1.18 s  ClockTime = 1 s

Mean and max Courant Numbers = 9.914573e-06 8.130153e-05
Time = 3.8e-11

diagonal:  Solving for rho, Initial residual = 0, Final residual = 0, No Iterations 0
diagonal:  Solving for rhoUx, Initial residual = 0, Final residual = 0, No Iterations 0
diagonal:  Solving for rhoUy, Initial residual = 0, Final residual = 0, No Iterations 0
diagonal:  Solving for rhoUz, Initial residual = 0, Final residual = 0, No Iterations 0
DICPCG:  Solving for Ux, Initial residual = 5.807528e-07, Final residual = 5.807528e-07, No Iterations 0
DICPCG:  Solving for Uy, Initial residual = 0.0001426838, Final residual = 6.474914e-11, No Iterations 1
DICPCG:  Solving for Uz, Initial residual = 0.0001436789, Final residual = 4.705986e-10, No Iterations 1
diagonal:  Solving for rhoE, Initial residual = 0, Final residual = 0, No Iterations 0
DICPCG:  Solving for h, Initial residual = 1.263362e-06, Final residual = 1.263362e-06, No Iterations 0
DILUPBiCGStab:  Solving for epsilon, Initial residual = 6.932896e-07, Final residual = 6.932896e-07, No Iterations 0
DILUPBiCGStab:  Solving for k, Initial residual = 0.0002443797, Final residual = 3.417354e-10, No Iterations 1
ExecutionTime = 1.21 s  ClockTime = 1 s

Mean and max Courant Numbers = 9.914574e-06 8.130153e-05
Time = 3.9e-11

diagonal:  Solving for rho, Initial residual = 0, Final residual = 0, No Iterations 0
diagonal:  Solving for rhoUx, Initial residual = 0, Final residual = 0, No Iterations 0
diagonal:  Solving for rhoUy, Initial residual = 0, Final residual = 0, No Iterations 0
diagonal:  Solving for rhoUz, Initial residual = 0, Final residual = 0, No Iterations 0
DICPCG:  Solving for Ux, Initial residual = 5.811219e-07, Final residual = 5.811219e-07, No Iterations 0
DICPCG:  Solving for Uy, Initial residual = 0.0001427893, Final residual = 6.476364e-11, No Iterations 1
DICPCG:  Solving for Uz, Initial residual = 0.0001438775, Final residual = 4.712076e-10, No Iterations 1
diagonal:  Solving for rhoE, Initial residual = 0, Final residual = 0, No Iterations 0
DICPCG:  Solving for h, Initial residual = 1.267276e-06, Final residual = 1.267276e-06, No Iterations 0
DILUPBiCGStab:  Solving for epsilon, Initial residual = 6.942398e-07, Final residual = 6.942398e-07, No Iterations 0
DILUPBiCGStab:  Solving for k, Initial residual = 0.0002449381, Final residual = 3.317526e-10, No Iterations 1
ExecutionTime = 1.24 s  ClockTime = 1 s

Mean and max Courant Numbers = 9.914574e-06 8.130153e-05
Time = 4e-11

diagonal:  Solving for rho, Initial residual = 0, Final residual = 0, No Iterations 0
diagonal:  Solving for rhoUx, Initial residual = 0, Final residual = 0, No Iterations 0
diagonal:  Solving for rhoUy, Initial residual = 0, Final residual = 0, No Iterations 0
diagonal:  Solving for rhoUz, Initial residual = 0, Final residual = 0, No Iterations 0
DICPCG:  Solving for Ux, Initial residual = 5.814862e-07, Final residual = 5.814862e-07, No Iterations 0
DICPCG:  Solving for Uy, Initial residual = 0.0001428986, Final residual = 6.477961e-11, No Iterations 1
DICPCG:  Solving for Uz, Initial residual = 0.0001440803, Final residual = 4.718243e-10, No Iterations 1
diagonal:  Solving for rhoE, Initial residual = 0, Final residual = 0, No Iterations 0
DICPCG:  Solving for h, Initial residual = 1.271056e-06, Final residual = 1.271056e-06, No Iterations 0
DILUPBiCGStab:  Solving for epsilon, Initial residual = 6.952386e-07, Final residual = 6.952386e-07, No Iterations 0
DILUPBiCGStab:  Solving for k, Initial residual = 0.0002474563, Final residual = 3.21044e-10, No Iterations 1
ExecutionTime = 1.26 s  ClockTime = 1 s

Mean and max Courant Numbers = 9.914575e-06 8.130153e-05
Time = 4.1e-11

diagonal:  Solving for rho, Initial residual = 0, Final residual = 0, No Iterations 0
diagonal:  Solving for rhoUx, Initial residual = 0, Final residual = 0, No Iterations 0
diagonal:  Solving for rhoUy, Initial residual = 0, Final residual = 0, No Iterations 0
diagonal:  Solving for rhoUz, Initial residual = 0, Final residual = 0, No Iterations 0
DICPCG:  Solving for Ux, Initial residual = 5.818449e-07, Final residual = 5.818449e-07, No Iterations 0
DICPCG:  Solving for Uy, Initial residual = 0.000143014, Final residual = 6.480207e-11, No Iterations 1
DICPCG:  Solving for Uz, Initial residual = 0.0001442898, Final residual = 4.7245e-10, No Iterations 1
diagonal:  Solving for rhoE, Initial residual = 0, Final residual = 0, No Iterations 0
DICPCG:  Solving for h, Initial residual = 1.274715e-06, Final residual = 1.274715e-06, No Iterations 0
DILUPBiCGStab:  Solving for epsilon, Initial residual = 6.962942e-07, Final residual = 6.962942e-07, No Iterations 0
DILUPBiCGStab:  Solving for k, Initial residual = 0.0002528141, Final residual = 3.097106e-10, No Iterations 1
ExecutionTime = 1.29 s  ClockTime = 1 s

Mean and max Courant Numbers = 9.914575e-06 8.130153e-05
Time = 4.2e-11

diagonal:  Solving for rho, Initial residual = 0, Final residual = 0, No Iterations 0
diagonal:  Solving for rhoUx, Initial residual = 0, Final residual = 0, No Iterations 0
diagonal:  Solving for rhoUy, Initial residual = 0, Final residual = 0, No Iterations 0
diagonal:  Solving for rhoUz, Initial residual = 0, Final residual = 0, No Iterations 0
DICPCG:  Solving for Ux, Initial residual = 5.821963e-07, Final residual = 5.821963e-07, No Iterations 0
DICPCG:  Solving for Uy, Initial residual = 0.0001431399, Final residual = 6.482779e-11, No Iterations 1
DICPCG:  Solving for Uz, Initial residual = 0.0001445103, Final residual = 4.730859e-10, No Iterations 1
diagonal:  Solving for rhoE, Initial residual = 0, Final residual = 0, No Iterations 0
DICPCG:  Solving for h, Initial residual = 1.278281e-06, Final residual = 1.278281e-06, No Iterations 0
DILUPBiCGStab:  Solving for epsilon, Initial residual = 6.974206e-07, Final residual = 6.974206e-07, No Iterations 0
DILUPBiCGStab:  Solving for k, Initial residual = 0.0002625403, Final residual = 2.977842e-10, No Iterations 1
ExecutionTime = 1.32 s  ClockTime = 1 s

Mean and max Courant Numbers = 9.914575e-06 8.130153e-05
Time = 4.3e-11

diagonal:  Solving for rho, Initial residual = 0, Final residual = 0, No Iterations 0
diagonal:  Solving for rhoUx, Initial residual = 0, Final residual = 0, No Iterations 0
diagonal:  Solving for rhoUy, Initial residual = 0, Final residual = 0, No Iterations 0
diagonal:  Solving for rhoUz, Initial residual = 0, Final residual = 0, No Iterations 0
DICPCG:  Solving for Ux, Initial residual = 5.825371e-07, Final residual = 5.825371e-07, No Iterations 0
DICPCG:  Solving for Uy, Initial residual = 0.0001432848, Final residual = 6.485807e-11, No Iterations 1
DICPCG:  Solving for Uz, Initial residual = 0.0001447498, Final residual = 4.737333e-10, No Iterations 1
diagonal:  Solving for rhoE, Initial residual = 0, Final residual = 0, No Iterations 0
DICPCG:  Solving for h, Initial residual = 1.281797e-06, Final residual = 1.281797e-06, No Iterations 0
DILUPBiCGStab:  Solving for epsilon, Initial residual = 6.986433e-07, Final residual = 6.986433e-07, No Iterations 0
DILUPBiCGStab:  Solving for k, Initial residual = 0.0002794378, Final residual = 2.855277e-10, No Iterations 1
ExecutionTime = 1.35 s  ClockTime = 1 s

Mean and max Courant Numbers = 9.914576e-06 8.130153e-05
Time = 4.4e-11

diagonal:  Solving for rho, Initial residual = 0, Final residual = 0, No Iterations 0
diagonal:  Solving for rhoUx, Initial residual = 0, Final residual = 0, No Iterations 0
diagonal:  Solving for rhoUy, Initial residual = 0, Final residual = 0, No Iterations 0
diagonal:  Solving for rhoUz, Initial residual = 0, Final residual = 0, No Iterations 0
DICPCG:  Solving for Ux, Initial residual = 5.8286e-07, Final residual = 5.8286e-07, No Iterations 0
DICPCG:  Solving for Uy, Initial residual = 0.0001434661, Final residual = 6.489606e-11, No Iterations 1
DICPCG:  Solving for Uz, Initial residual = 0.0001450268, Final residual = 4.74393e-10, No Iterations 1
diagonal:  Solving for rhoE, Initial residual = 0, Final residual = 0, No Iterations 0
DICPCG:  Solving for h, Initial residual = 1.285331e-06, Final residual = 1.285331e-06, No Iterations 0
DILUPBiCGStab:  Solving for epsilon, Initial residual = 7.000094e-07, Final residual = 7.000094e-07, No Iterations 0
DILUPBiCGStab:  Solving for k, Initial residual = 0.0003090106, Final residual = 2.730837e-10, No Iterations 1
ExecutionTime = 1.38 s  ClockTime = 1 s

Mean and max Courant Numbers = 9.914576e-06 8.130153e-05
Time = 4.5e-11

diagonal:  Solving for rho, Initial residual = 0, Final residual = 0, No Iterations 0
diagonal:  Solving for rhoUx, Initial residual = 0, Final residual = 0, No Iterations 0
diagonal:  Solving for rhoUy, Initial residual = 0, Final residual = 0, No Iterations 0
diagonal:  Solving for rhoUz, Initial residual = 0, Final residual = 0, No Iterations 0
DICPCG:  Solving for Ux, Initial residual = 5.83148e-07, Final residual = 5.83148e-07, No Iterations 0
DICPCG:  Solving for Uy, Initial residual = 0.0001437201, Final residual = 6.494856e-11, No Iterations 1
DICPCG:  Solving for Uz, Initial residual = 0.000145377, Final residual = 4.750641e-10, No Iterations 1
diagonal:  Solving for rhoE, Initial residual = 0, Final residual = 0, No Iterations 0
DICPCG:  Solving for h, Initial residual = 1.289034e-06, Final residual = 1.289034e-06, No Iterations 0
DILUPBiCGStab:  Solving for epsilon, Initial residual = 7.016123e-07, Final residual = 7.016123e-07, No Iterations 0
DILUPBiCGStab:  Solving for k, Initial residual = 0.0003630448, Final residual = 2.60301e-10, No Iterations 1
ExecutionTime = 1.4 s  ClockTime = 1 s

Mean and max Courant Numbers = 9.914577e-06 8.130153e-05
Time = 4.6e-11

diagonal:  Solving for rho, Initial residual = 0, Final residual = 0, No Iterations 0
diagonal:  Solving for rhoUx, Initial residual = 0, Final residual = 0, No Iterations 0
diagonal:  Solving for rhoUy, Initial residual = 0, Final residual = 0, No Iterations 0
diagonal:  Solving for rhoUz, Initial residual = 0, Final residual = 0, No Iterations 0
DICPCG:  Solving for Ux, Initial residual = 5.833553e-07, Final residual = 5.833553e-07, No Iterations 0
DICPCG:  Solving for Uy, Initial residual = 0.0001441474, Final residual = 6.503317e-11, No Iterations 1
DICPCG:  Solving for Uz, Initial residual = 0.000145901, Final residual = 4.757382e-10, No Iterations 1
diagonal:  Solving for rhoE, Initial residual = 0, Final residual = 0, No Iterations 0
DICPCG:  Solving for h, Initial residual = 1.293283e-06, Final residual = 1.293283e-06, No Iterations 0
DILUPBiCGStab:  Solving for epsilon, Initial residual = 7.036524e-07, Final residual = 7.036524e-07, No Iterations 0
DILUPBiCGStab:  Solving for k, Initial residual = 0.0004697396, Final residual = 2.462163e-10, No Iterations 1
ExecutionTime = 1.43 s  ClockTime = 1 s

Mean and max Courant Numbers = 9.914577e-06 8.130153e-05
Time = 4.7e-11

diagonal:  Solving for rho, Initial residual = 0, Final residual = 0, No Iterations 0
diagonal:  Solving for rhoUx, Initial residual = 0, Final residual = 0, No Iterations 0
diagonal:  Solving for rhoUy, Initial residual = 0, Final residual = 0, No Iterations 0
diagonal:  Solving for rhoUz, Initial residual = 0, Final residual = 0, No Iterations 0
DICPCG:  Solving for Ux, Initial residual = 5.833324e-07, Final residual = 5.833324e-07, No Iterations 0
DICPCG:  Solving for Uy, Initial residual = 0.0001450744, Final residual = 6.520609e-11, No Iterations 1
DICPCG:  Solving for Uz, Initial residual = 0.000146925, Final residual = 4.763602e-10, No Iterations 1
diagonal:  Solving for rhoE, Initial residual = 0, Final residual = 0, No Iterations 0
DICPCG:  Solving for h, Initial residual = 1.299282e-06, Final residual = 1.299282e-06, No Iterations 0
DILUPBiCGStab:  Solving for epsilon, Initial residual = 7.066178e-07, Final residual = 7.066178e-07, No Iterations 0
DILUPBiCGStab:  Solving for k, Initial residual = 0.0007070805, Final residual = 2.288517e-10, No Iterations 1
ExecutionTime = 1.46 s  ClockTime = 1 s

Mean and max Courant Numbers = 9.914577e-06 8.130153e-05
Time = 4.8e-11

diagonal:  Solving for rho, Initial residual = 0, Final residual = 0, No Iterations 0
diagonal:  Solving for rhoUx, Initial residual = 0, Final residual = 0, No Iterations 0
diagonal:  Solving for rhoUy, Initial residual = 0, Final residual = 0, No Iterations 0
diagonal:  Solving for rhoUz, Initial residual = 0, Final residual = 0, No Iterations 0
DICPCG:  Solving for Ux, Initial residual = 5.824308e-07, Final residual = 5.824308e-07, No Iterations 0
DICPCG:  Solving for Uy, Initial residual = 0.0001479069, Final residual = 6.570523e-11, No Iterations 1
DICPCG:  Solving for Uz, Initial residual = 0.0001498536, Final residual = 4.764116e-10, No Iterations 1
diagonal:  Solving for rhoE, Initial residual = 0, Final residual = 0, No Iterations 0
DICPCG:  Solving for h, Initial residual = 1.312217e-06, Final residual = 1.312217e-06, No Iterations 0
DILUPBiCGStab:  Solving for epsilon, Initial residual = 7.119477e-07, Final residual = 7.119477e-07, No Iterations 0
DILUPBiCGStab:  Solving for k, Initial residual = 0.001337126, Final residual = 2.130805e-10, No Iterations 1
ExecutionTime = 1.49 s  ClockTime = 1 s

Mean and max Courant Numbers = 9.914578e-06 8.130153e-05
Time = 4.9e-11

diagonal:  Solving for rho, Initial residual = 0, Final residual = 0, No Iterations 0
diagonal:  Solving for rhoUx, Initial residual = 0, Final residual = 0, No Iterations 0
diagonal:  Solving for rhoUy, Initial residual = 0, Final residual = 0, No Iterations 0
diagonal:  Solving for rhoUz, Initial residual = 0, Final residual = 0, No Iterations 0
DICPCG:  Solving for Ux, Initial residual = 5.827854e-07, Final residual = 5.827854e-07, No Iterations 0
DICPCG:  Solving for Uy, Initial residual = 0.0001634604, Final residual = 6.81497e-11, No Iterations 1
DICPCG:  Solving for Uz, Initial residual = 0.0001654889, Final residual = 4.676149e-10, No Iterations 1
diagonal:  Solving for rhoE, Initial residual = 0, Final residual = 0, No Iterations 0
DICPCG:  Solving for h, Initial residual = 1.367498e-06, Final residual = 1.367498e-06, No Iterations 0
DILUPBiCGStab:  Solving for epsilon, Initial residual = 7.254163e-07, Final residual = 7.254163e-07, No Iterations 0
DILUPBiCGStab:  Solving for k, Initial residual = 0.003516611, Final residual = 3.263612e-10, No Iterations 1
ExecutionTime = 1.51 s  ClockTime = 2 s

Mean and max Courant Numbers = 9.914578e-06 8.130153e-05
Time = 5e-11

diagonal:  Solving for rho, Initial residual = 0, Final residual = 0, No Iterations 0
diagonal:  Solving for rhoUx, Initial residual = 0, Final residual = 0, No Iterations 0
diagonal:  Solving for rhoUy, Initial residual = 0, Final residual = 0, No Iterations 0
diagonal:  Solving for rhoUz, Initial residual = 0, Final residual = 0, No Iterations 0
DICPCG:  Solving for Ux, Initial residual = 1.025226e-06, Final residual = 1.025226e-06, No Iterations 0
DICPCG:  Solving for Uy, Initial residual = 0.0003982578, Final residual = 1.057374e-10, No Iterations 1
DICPCG:  Solving for Uz, Initial residual = 0.0004045361, Final residual = 4.543509e-10, No Iterations 1
diagonal:  Solving for rhoE, Initial residual = 0, Final residual = 0, No Iterations 0
DICPCG:  Solving for h, Initial residual = 3.560197e-06, Final residual = 3.560197e-06, No Iterations 0
DILUPBiCGStab:  Solving for epsilon, Initial residual = 7.886117e-07, Final residual = 7.886117e-07, No Iterations 0
DILUPBiCGStab:  Solving for k, Initial residual = 0.01500144, Final residual = 8.882721e-09, No Iterations 1
ExecutionTime = 1.54 s  ClockTime = 2 s

Mean and max Courant Numbers = 9.914579e-06 8.130153e-05
Time = 5.1e-11

diagonal:  Solving for rho, Initial residual = 0, Final residual = 0, No Iterations 0
diagonal:  Solving for rhoUx, Initial residual = 0, Final residual = 0, No Iterations 0
diagonal:  Solving for rhoUy, Initial residual = 0, Final residual = 0, No Iterations 0
diagonal:  Solving for rhoUz, Initial residual = 0, Final residual = 0, No Iterations 0
DICPCG:  Solving for Ux, Initial residual = 3.610229e-05, Final residual = 3.610229e-05, No Iterations 0
DICPCG:  Solving for Uy, Initial residual = 0.01979079, Final residual = 7.687814e-08, No Iterations 1
DICPCG:  Solving for Uz, Initial residual = 0.02006815, Final residual = 8.105135e-08, No Iterations 1
diagonal:  Solving for rhoE, Initial residual = 0, Final residual = 0, No Iterations 0
DICPCG:  Solving for h, Initial residual = 0.002232148, Final residual = 4.116819e-08, No Iterations 1
DILUPBiCGStab:  Solving for epsilon, Initial residual = 2.424234e-06, Final residual = 2.424234e-06, No Iterations 0
DILUPBiCGStab:  Solving for k, Initial residual = 0.1291586, Final residual = 4.595164e-06, No Iterations 1
ExecutionTime = 1.58 s  ClockTime = 2 s

Mean and max Courant Numbers = 9.914579e-06 8.130153e-05
Time = 5.2e-11

diagonal:  Solving for rho, Initial residual = 0, Final residual = 0, No Iterations 0
diagonal:  Solving for rhoUx, Initial residual = 0, Final residual = 0, No Iterations 0
diagonal:  Solving for rhoUy, Initial residual = 0, Final residual = 0, No Iterations 0
diagonal:  Solving for rhoUz, Initial residual = 0, Final residual = 0, No Iterations 0
DICPCG:  Solving for Ux, Initial residual = 0.04484483, Final residual = 8.880268e-05, No Iterations 2
DICPCG:  Solving for Uy, Initial residual = 0.2524399, Final residual = 0.0001063865, No Iterations 7
DICPCG:  Solving for Uz, Initial residual = 0.2513187, Final residual = 7.342753e-05, No Iterations 7
diagonal:  Solving for rhoE, Initial residual = 0, Final residual = 0, No Iterations 0
DICPCG:  Solving for h, Initial residual = 0.9903758, Final residual = 0.000252434, No Iterations 6
DILUPBiCGStab:  Solving for epsilon, Initial residual = 0.002009632, Final residual = 7.569804e-05, No Iterations 1
bounding epsilon, min: -123.6118 max: 669.3606 average: 7.529394
DILUPBiCGStab:  Solving for k, Initial residual = 0.4553395, Final residual = 5.231656e-05, No Iterations 8
ExecutionTime = 1.6 s  ClockTime = 2 s

Mean and max Courant Numbers = 9.914585e-06 8.130153e-05
Time = 5.3e-11

diagonal:  Solving for rho, Initial residual = 0, Final residual = 0, No Iterations 0
diagonal:  Solving for rhoUx, Initial residual = 0, Final residual = 0, No Iterations 0
diagonal:  Solving for rhoUy, Initial residual = 0, Final residual = 0, No Iterations 0
diagonal:  Solving for rhoUz, Initial residual = 0, Final residual = 0, No Iterations 0
DICPCG:  Solving for Ux, Initial residual = 0.9444251, Final residual = 0.0005150335, No Iterations 5
DICPCG:  Solving for Uy, Initial residual = 0.9283026, Final residual = 0.0008198391, No Iterations 5
DICPCG:  Solving for Uz, Initial residual = 0.8365882, Final residual = 0.0007198264, No Iterations 5
diagonal:  Solving for rhoE, Initial residual = 0, Final residual = 0, No Iterations 0
DICPCG:  Solving for h, Initial residual = 0.9548613, Final residual = 0.0009025122, No Iterations 4
DILUPBiCGStab:  Solving for epsilon, Initial residual = 0.3173009, Final residual = 0.000245417, No Iterations 3
bounding epsilon, min: -2.484047 max: 716.0997 average: 7.665162
DILUPBiCGStab:  Solving for k, Initial residual = 0.8409875, Final residual = 0.0007227755, No Iterations 3
bounding k, min: -9579.239 max: 105951.8 average: 208.6704
ExecutionTime = 1.63 s  ClockTime = 2 s

Mean and max Courant Numbers = 9.91382e-06 8.130153e-05
Time = 5.4e-11

diagonal:  Solving for rho, Initial residual = 0, Final residual = 0, No Iterations 0
diagonal:  Solving for rhoUx, Initial residual = 0, Final residual = 0, No Iterations 0
diagonal:  Solving for rhoUy, Initial residual = 0, Final residual = 0, No Iterations 0
diagonal:  Solving for rhoUz, Initial residual = 0, Final residual = 0, No Iterations 0
DICPCG:  Solving for Ux, Initial residual = 0.935129, Final residual = 0.0008930385, No Iterations 6
DICPCG:  Solving for Uy, Initial residual = 0.9374129, Final residual = 0.000453819, No Iterations 9
DICPCG:  Solving for Uz, Initial residual = 0.941161, Final residual = 0.0007279206, No Iterations 9
diagonal:  Solving for rhoE, Initial residual = 0, Final residual = 0, No Iterations 0
DICPCG:  Solving for h, Initial residual = 0.9872039, Final residual = 0.0009540981, No Iterations 8
DILUPBiCGStab:  Solving for epsilon, Initial residual = 0.4907092, Final residual = 0.0004504274, No Iterations 35
bounding epsilon, min: -148.3516 max: 18538.43 average: 185.2398
DILUPBiCGStab:  Solving for k, Initial residual = 0.9774549, Final residual = 0.0005975677, No Iterations 4
ExecutionTime = 1.68 s  ClockTime = 2 s

Mean and max Courant Numbers = 9.911466e-06 8.130153e-05
Time = 5.5e-11

diagonal:  Solving for rho, Initial residual = 0, Final residual = 0, No Iterations 0
diagonal:  Solving for rhoUx, Initial residual = 0, Final residual = 0, No Iterations 0
diagonal:  Solving for rhoUy, Initial residual = 0, Final residual = 0, No Iterations 0
diagonal:  Solving for rhoUz, Initial residual = 0, Final residual = 0, No Iterations 0
DICPCG:  Solving for Ux, Initial residual = 0.9803442, Final residual = 0.0006762078, No Iterations 15
DICPCG:  Solving for Uy, Initial residual = 0.8663655, Final residual = 0.000747791, No Iterations 7
DICPCG:  Solving for Uz, Initial residual = 0.8814202, Final residual = 0.0008811544, No Iterations 6
diagonal:  Solving for rhoE, Initial residual = 0, Final residual = 0, No Iterations 0
DICPCG:  Solving for h, Initial residual = 0.9176306, Final residual = 0.0008555829, No Iterations 8
DILUPBiCGStab:  Solving for epsilon, Initial residual = 0.008237069, Final residual = 1.218991e-21, No Iterations 1
bounding epsilon, min: -3.492913e+09 max: 4.08004e+27 average: 4.669215e+23
DILUPBiCGStab:  Solving for k, Initial residual = 1, Final residual = 4.368409e-33, No Iterations 1
bounding k, min: -5.794899e+29 max: 5.794899e+29 average: -9.049983e+24
ExecutionTime = 1.72 s  ClockTime = 2 s

[20] [stack trace]
[20] =============
[20] #1  Foam::sigFpe::sigHandler(int) in /usr/lib/openfoam/openfoam2406/platforms/linux64GccDPInt32Opt/lib/libOpenFOAM.so
[20] #2  ? in /lib/x86_64-linux-gnu/libc.so.6
[20] #3  ? in /lib/x86_64-linux-gnu/libm.so.6
[20] #4  ? in /usr/lib/openfoam/openfoam2406/platforms/linux64GccDPInt32Opt/lib/libfluidThermophysicalModels.so
[20] #5  ? in /usr/lib/openfoam/openfoam2406/platforms/linux64GccDPInt32Opt/lib/libfluidThermophysicalModels.so
[20] #6  ? in /usr/lib/openfoam/openfoam2406/platforms/linux64GccDPInt32Opt/lib/libfluidThermophysicalModels.so
[20] #7  ? in /usr/lib/openfoam/openfoam2406/platforms/linux64GccDPInt32Opt/bin/rhoCentralFoam
[20] #8  ? in /lib/x86_64-linux-gnu/libc.so.6
[20] #9  __libc_start_main in /lib/x86_64-linux-gnu/libc.so.6
[20] #10  ? in /usr/lib/openfoam/openfoam2406/platforms/linux64GccDPInt32Opt/bin/rhoCentralFoam
[20] =============
[dphan-Thelio-Major:155763] *** Process received signal ***
[dphan-Thelio-Major:155763] Signal: Floating point exception (8)
[dphan-Thelio-Major:155763] Signal code:  (-6)
[dphan-Thelio-Major:155763] Failing at address: 0x3e800026073
[dphan-Thelio-Major:155763] [ 0] /lib/x86_64-linux-gnu/libc.so.6(+0x42520)[0x711ae0442520]
[dphan-Thelio-Major:155763] [ 1] /lib/x86_64-linux-gnu/libc.so.6(pthread_kill+0x12c)[0x711ae04969fc]
[dphan-Thelio-Major:155763] [ 2] /lib/x86_64-linux-gnu/libc.so.6(raise+0x16)[0x711ae0442476]
[dphan-Thelio-Major:155763] [ 3] /lib/x86_64-linux-gnu/libc.so.6(+0x42520)[0x711ae0442520]
[dphan-Thelio-Major:155763] [ 4] /lib/x86_64-linux-gnu/libm.so.6(+0x70a38)[0x711ae18eaa38]
[dphan-Thelio-Major:155763] [ 5] /usr/lib/openfoam/openfoam2406/platforms/linux64GccDPInt32Opt/lib/libfluidThermophysicalModels.so(+0x1f461e)[0x711ae1bf461e]
[dphan-Thelio-Major:155763] [ 6] /usr/lib/openfoam/openfoam2406/platforms/linux64GccDPInt32Opt/lib/libfluidThermophysicalModels.so(+0x20a610)[0x711ae1c0a610]
[dphan-Thelio-Major:155763] [ 7] /usr/lib/openfoam/openfoam2406/platforms/linux64GccDPInt32Opt/lib/libfluidThermophysicalModels.so(+0x20ebc5)[0x711ae1c0ebc5]
[dphan-Thelio-Major:155763] [ 8] rhoCentralFoam(+0x1c023)[0x5849729ac023]
[dphan-Thelio-Major:155763] [ 9] /lib/x86_64-linux-gnu/libc.so.6(+0x29d90)[0x711ae0429d90]
[dphan-Thelio-Major:155763] [10] /lib/x86_64-linux-gnu/libc.so.6(__libc_start_main+0x80)[0x711ae0429e40]
[dphan-Thelio-Major:155763] [11] rhoCentralFoam(+0x26b65)[0x5849729b6b65]
[dphan-Thelio-Major:155763] *** End of error message ***
--------------------------------------------------------------------------
Primary job  terminated normally, but 1 process returned
a non-zero exit code. Per user-direction, the job has been aborted.
--------------------------------------------------------------------------
--------------------------------------------------------------------------
mpiexec noticed that process rank 20 with PID 0 on node dphan-Thelio-Major exited on signal 8 (Floating point exception).
--------------------------------------------------------------------------
